@<TRIPOS>MOLECULE
LUKLIN
  1392  1644     1     0     0
SMALL
NO_CHARGES
****
Generated from the CSD

@<TRIPOS>ATOM
     1 Cu1      8.4066   8.4066  18.6150   Cu        1 RES1   0.0000
     2 O1       7.2643   9.1992  17.2703   O.co2     1 RES1   0.0000
     3 C1       6.9199  10.7148  15.7018   C.2       1 RES1   0.0000
     4 O2       8.7438  10.8615  17.1053   O.co2     1 RES1   0.0000
     5 C2       7.3157  11.8276  14.9676   C.2       1 RES1   0.0000
     6 H1       8.1012  12.3045  15.2159   H         1 RES1   0.0000
     7 O3       6.8503   6.8503  18.6150   O.3       1 RES1   0.0000
     8 H2       6.0983   6.9285  18.0379   H         1 RES1   0.0000
     9 C3       6.5744  12.2442  13.8756   C.2       1 RES1   0.0000
    10 C4       5.3890  11.5636  13.5212   C.2       1 RES1   0.0000
    11 C5       4.9695  10.4527  14.2803   C.2       1 RES1   0.0000
    12 H3       4.1698   9.9925  14.0580   H         1 RES1   0.0000
    13 C6       5.7438  10.0372  15.3626   C.2       1 RES1   0.0000
    14 H4       5.4691   9.2852  15.8749   H         1 RES1   0.0000
    15 C7       7.7215  10.2531  16.8429   C.2       1 RES1   0.0000
    16 Cu1IC    0.0000  10.2084   8.4066   Cu        1 RES1   0.0000
    17 Cu1JB   10.2084  18.6150  10.2084   Cu        1 RES1   0.0000
    18 Cu1VB   10.2084  10.2084  18.6150   Cu        1 RES1   0.0000
    19 Cu1CB    0.0000   8.4066  10.2084   Cu        1 RES1   0.0000
    20 Cu1D     8.4066  18.6150   8.4066   Cu        1 RES1   0.0000
    21 Cu1HC   10.2084   0.0000  28.8234   Cu        1 RES1   0.0000
    22 Cu1BA    8.4066   0.0000  27.0216   Cu        1 RES1   0.0000
    23 Cu1MA   18.6150  10.2084  27.0216   Cu        1 RES1   0.0000
    24 Cu1G    18.6150   8.4066  28.8234   Cu        1 RES1   0.0000
    25 O1IC     1.3447  11.3507   9.1992   O.co2     1 RES1   0.0000
    26 O1JB     9.4158  17.2703  11.3507   O.co2     1 RES1   0.0000
    27 O1R      9.1992   7.2643  19.9597   O.co2     1 RES1   0.0000
    28 O1OC    11.3507   1.3447  28.0308   O.co2     1 RES1   0.0000
    29 O1TA    17.2703   9.4158  25.8793   O.co2     1 RES1   0.0000
    30 O1QB    11.3507  19.9597   9.4158   O.co2     1 RES1   0.0000
    31 C1IC     2.9132  11.6951  10.7148   C.2       1 RES1   0.0000
    32 C1JB     7.9002  15.7018  11.6951   C.2       1 RES1   0.0000
    33 C1R     10.7148   6.9199  21.5282   C.2       1 RES1   0.0000
    34 C1OC    11.6951   2.9132  26.5152   C.2       1 RES1   0.0000
    35 C1TA    15.7018   7.9002  25.5349   C.2       1 RES1   0.0000
    36 O2IC     1.5097   9.8712  10.8615   O.co2     1 RES1   0.0000
    37 O2JB     7.7535  17.1053   9.8712   O.co2     1 RES1   0.0000
    38 O2R     10.8615   8.7438  20.1247   O.co2     1 RES1   0.0000
    39 O2OC     9.8712   1.5097  26.3685   O.co2     1 RES1   0.0000
    40 O2TA    17.1053   7.7535  27.3588   O.co2     1 RES1   0.0000
    41 O2VB     9.8712   7.7535  17.1053   O.co2     1 RES1   0.0000
    42 O2MC     7.7535   9.8712  20.1247   O.co2     1 RES1   0.0000
    43 O2LB     1.5097   8.7438   7.7535   O.co2     1 RES1   0.0000
    44 O2K     10.8615  17.1053   8.7438   O.co2     1 RES1   0.0000
    45 O2D      8.7438  20.1247  10.8615   O.co2     1 RES1   0.0000
    46 C2IC     3.6474  11.2993  11.8276   C.2       1 RES1   0.0000
    47 C2JB     6.7874  14.9676  11.2993   C.2       1 RES1   0.0000
    48 C2R     11.8276   7.3157  22.2624   C.2       1 RES1   0.0000
    49 C2OC    11.2993   3.6474  25.4024   C.2       1 RES1   0.0000
    50 C2TA    14.9676   6.7874  25.9307   C.2       1 RES1   0.0000
    51 H1JB     6.3105  15.2159  10.5138   H         1 RES1   0.0000
    52 H1IC     3.3991  10.5138  12.3045   H         1 RES1   0.0000
    53 H1R     12.3045   8.1012  22.0141   H         1 RES1   0.0000
    54 H1TA    15.2159   6.3105  26.7162   H         1 RES1   0.0000
    55 H1OC    10.5138   3.3991  24.9255   H         1 RES1   0.0000
    56 O3IC     0.0000  11.7647   6.8503   O.3       1 RES1   0.0000
    57 O3JB    11.7647  18.6150  11.7647   O.3       1 RES1   0.0000
    58 H2R      6.9285   6.0983  19.1921   H         1 RES1   0.0000
    59 H2IC     0.5771  12.5167   6.9285   H         1 RES1   0.0000
    60 H2JB    11.6865  18.0379  12.5167   H         1 RES1   0.0000
    61 H2QB    12.5167  19.1921  11.6865   H         1 RES1   0.0000
    62 C3IC     4.7394  12.0406  12.2442   C.2       1 RES1   0.0000
    63 C3JB     6.3708  13.8756  12.0406   C.2       1 RES1   0.0000
    64 C3R     12.2442   6.5744  23.3544   C.2       1 RES1   0.0000
    65 C3OC    12.0406   4.7394  24.9858   C.2       1 RES1   0.0000
    66 C3TA    13.8756   6.3708  25.1894   C.2       1 RES1   0.0000
    67 C4IC     5.0938  13.2260  11.5636   C.2       1 RES1   0.0000
    68 C4JB     7.0514  13.5212  13.2260   C.2       1 RES1   0.0000
    69 C4R     11.5636   5.3890  23.7088   C.2       1 RES1   0.0000
    70 C4OC    13.2260   5.0938  25.6664   C.2       1 RES1   0.0000
    71 C4TA    13.5212   7.0514  24.0040   C.2       1 RES1   0.0000
    72 C5IC     4.3347  13.6455  10.4527   C.2       1 RES1   0.0000
    73 C5JB     8.1623  14.2803  13.6455   C.2       1 RES1   0.0000
    74 C5R     10.4527   4.9695  22.9497   C.2       1 RES1   0.0000
    75 C5OC    13.6455   4.3347  26.7773   C.2       1 RES1   0.0000
    76 C5TA    14.2803   8.1623  23.5845   C.2       1 RES1   0.0000
    77 H3JB     8.6225  14.0580  14.4452   H         1 RES1   0.0000
    78 H3IC     4.5570  14.4452   9.9925   H         1 RES1   0.0000
    79 H3R      9.9925   4.1698  23.1720   H         1 RES1   0.0000
    80 H3TA    14.0580   8.6225  22.7848   H         1 RES1   0.0000
    81 H3OC    14.4452   4.5570  27.2375   H         1 RES1   0.0000
    82 C6IC     3.2524  12.8712  10.0372   C.2       1 RES1   0.0000
    83 C6JB     8.5778  15.3626  12.8712   C.2       1 RES1   0.0000
    84 C6R     10.0372   5.7438  21.8674   C.2       1 RES1   0.0000
    85 C6OC    12.8712   3.2524  27.1928   C.2       1 RES1   0.0000
    86 C6TA    15.3626   8.5778  24.3588   C.2       1 RES1   0.0000
    87 H4JB     9.3298  15.8749  13.1459   H         1 RES1   0.0000
    88 H4IC     2.7401  13.1459   9.2852   H         1 RES1   0.0000
    89 H4R      9.2852   5.4691  21.3551   H         1 RES1   0.0000
    90 H4TA    15.8749   9.3298  24.0841   H         1 RES1   0.0000
    91 H4OC    13.1459   2.7401  27.9448   H         1 RES1   0.0000
    92 C7IC     1.7721  10.8935  10.2531   C.2       1 RES1   0.0000
    93 C7JB     8.3619  16.8429  10.8935   C.2       1 RES1   0.0000
    94 C7R     10.2531   7.7215  20.3871   C.2       1 RES1   0.0000
    95 C7OC    10.8935   1.7721  26.9769   C.2       1 RES1   0.0000
    96 C7TA    16.8429   8.3619  26.3365   C.2       1 RES1   0.0000
    97 Cu1HC   10.2084  37.2300  28.8234   Cu        1 RES1   0.0000
    98 Cu1BA    8.4066  37.2300  27.0216   Cu        1 RES1   0.0000
    99 Cu1IC   37.2300  10.2084   8.4066   Cu        1 RES1   0.0000
   100 Cu1CB   37.2300   8.4066  10.2084   Cu        1 RES1   0.0000
   101 O1PC    35.8853   9.4158   7.2643   O.co2     1 RES1   0.0000
   102 O2CB    35.7203  10.8615   9.8712   O.co2     1 RES1   0.0000
   103 O3IC    37.2300  11.7647   6.8503   O.3       1 RES1   0.0000
   104 H2PC    36.6529  11.6865   6.0983   H         1 RES1   0.0000
   105 Cu1HC    0.0000  10.2084  28.8234   Cu        1 RES1   0.0000
   106 Cu1BA    0.0000   8.4066  27.0216   Cu        1 RES1   0.0000
   107 Cu1     28.8234   8.4066  18.6150   Cu        1 RES1   0.0000
   108 O1      28.0308   7.2643  17.2703   O.co2     1 RES1   0.0000
   109 C1      26.5152   6.9199  15.7018   C.2       1 RES1   0.0000
   110 O2      26.3685   8.7438  17.1053   O.co2     1 RES1   0.0000
   111 C2      25.4024   7.3157  14.9676   C.2       1 RES1   0.0000
   112 H1      24.9255   8.1012  15.2159   H         1 RES1   0.0000
   113 O3      30.3797   6.8503  18.6150   O.3       1 RES1   0.0000
   114 H2      30.3015   6.0983  18.0379   H         1 RES1   0.0000
   115 C3      24.9858   6.5744  13.8756   C.2       1 RES1   0.0000
   116 C4      25.6664   5.3890  13.5212   C.2       1 RES1   0.0000
   117 C5      26.7773   4.9695  14.2803   C.2       1 RES1   0.0000
   118 H3      27.2375   4.1698  14.0580   H         1 RES1   0.0000
   119 C6      27.1928   5.7438  15.3626   C.2       1 RES1   0.0000
   120 H4      27.9448   5.4691  15.8749   H         1 RES1   0.0000
   121 C7      26.9769   7.7215  16.8429   C.2       1 RES1   0.0000
   122 Cu1IC   27.0216   0.0000   8.4066   Cu        1 RES1   0.0000
   123 Cu1JB   18.6150  10.2084  10.2084   Cu        1 RES1   0.0000
   124 Cu1VB   27.0216  10.2084  18.6150   Cu        1 RES1   0.0000
   125 Cu1CB   28.8234   0.0000  10.2084   Cu        1 RES1   0.0000
   126 Cu1D    18.6150   8.4066   8.4066   Cu        1 RES1   0.0000
   127 Cu1HC   37.2300  10.2084  28.8234   Cu        1 RES1   0.0000
   128 Cu1BA   37.2300   8.4066  27.0216   Cu        1 RES1   0.0000
   129 Cu1MA   27.0216  18.6150  27.0216   Cu        1 RES1   0.0000
   130 Cu1G    28.8234  18.6150  28.8234   Cu        1 RES1   0.0000
   131 O1IC    25.8793   1.3447   9.1992   O.co2     1 RES1   0.0000
   132 O1JB    19.9597   9.4158  11.3507   O.co2     1 RES1   0.0000
   133 O1R     29.9657   9.1992  19.9597   O.co2     1 RES1   0.0000
   134 O1OC    35.8853  11.3507  28.0308   O.co2     1 RES1   0.0000
   135 O1TA    27.8142  17.2703  25.8793   O.co2     1 RES1   0.0000
   136 O1QB    17.2703  11.3507   9.4158   O.co2     1 RES1   0.0000
   137 C1IC    25.5349   2.9132  10.7148   C.2       1 RES1   0.0000
   138 C1JB    21.5282   7.9002  11.6951   C.2       1 RES1   0.0000
   139 C1R     30.3101  10.7148  21.5282   C.2       1 RES1   0.0000
   140 C1OC    34.3168  11.6951  26.5152   C.2       1 RES1   0.0000
   141 C1TA    29.3298  15.7018  25.5349   C.2       1 RES1   0.0000
   142 O2IC    27.3588   1.5097  10.8615   O.co2     1 RES1   0.0000
   143 O2JB    20.1247   7.7535   9.8712   O.co2     1 RES1   0.0000
   144 O2R     28.4862  10.8615  20.1247   O.co2     1 RES1   0.0000
   145 O2OC    35.7203   9.8712  26.3685   O.co2     1 RES1   0.0000
   146 O2TA    29.4765  17.1053  27.3588   O.co2     1 RES1   0.0000
   147 O2VB    29.4765   9.8712  17.1053   O.co2     1 RES1   0.0000
   148 O2MC    27.3588   7.7535  20.1247   O.co2     1 RES1   0.0000
   149 O2LB    28.4862   1.5097   7.7535   O.co2     1 RES1   0.0000
   150 O2K     20.1247  10.8615   8.7438   O.co2     1 RES1   0.0000
   151 O2D     17.1053   8.7438  10.8615   O.co2     1 RES1   0.0000
   152 C2IC    25.9307   3.6474  11.8276   C.2       1 RES1   0.0000
   153 C2JB    22.2624   6.7874  11.2993   C.2       1 RES1   0.0000
   154 C2R     29.9143  11.8276  22.2624   C.2       1 RES1   0.0000
   155 C2OC    33.5826  11.2993  25.4024   C.2       1 RES1   0.0000
   156 C2TA    30.4426  14.9676  25.9307   C.2       1 RES1   0.0000
   157 H1JB    22.0141   6.3105  10.5138   H         1 RES1   0.0000
   158 H1IC    26.7162   3.3991  12.3045   H         1 RES1   0.0000
   159 H1R     29.1288  12.3045  22.0141   H         1 RES1   0.0000
   160 H1TA    30.9195  15.2159  26.7162   H         1 RES1   0.0000
   161 H1OC    33.8309  10.5138  24.9255   H         1 RES1   0.0000
   162 O3IC    25.4653   0.0000   6.8503   O.3       1 RES1   0.0000
   163 O3JB    18.6150  11.7647  11.7647   O.3       1 RES1   0.0000
   164 H2R     31.1317   6.9285  19.1921   H         1 RES1   0.0000
   165 H2IC    24.7133   0.5771   6.9285   H         1 RES1   0.0000
   166 H2JB    19.1921  11.6865  12.5167   H         1 RES1   0.0000
   167 H2QB    18.0379  12.5167  11.6865   H         1 RES1   0.0000
   168 C3IC    25.1894   4.7394  12.2442   C.2       1 RES1   0.0000
   169 C3JB    23.3544   6.3708  12.0406   C.2       1 RES1   0.0000
   170 C3R     30.6556  12.2442  23.3544   C.2       1 RES1   0.0000
   171 C3OC    32.4906  12.0406  24.9858   C.2       1 RES1   0.0000
   172 C3TA    30.8592  13.8756  25.1894   C.2       1 RES1   0.0000
   173 C4IC    24.0040   5.0938  11.5636   C.2       1 RES1   0.0000
   174 C4JB    23.7088   7.0514  13.2260   C.2       1 RES1   0.0000
   175 C4R     31.8410  11.5636  23.7088   C.2       1 RES1   0.0000
   176 C4OC    32.1362  13.2260  25.6664   C.2       1 RES1   0.0000
   177 C4TA    30.1786  13.5212  24.0040   C.2       1 RES1   0.0000
   178 C5IC    23.5845   4.3347  10.4527   C.2       1 RES1   0.0000
   179 C5JB    22.9497   8.1623  13.6455   C.2       1 RES1   0.0000
   180 C5R     32.2605  10.4527  22.9497   C.2       1 RES1   0.0000
   181 C5OC    32.8953  13.6455  26.7773   C.2       1 RES1   0.0000
   182 C5TA    29.0677  14.2803  23.5845   C.2       1 RES1   0.0000
   183 H3JB    23.1720   8.6225  14.4452   H         1 RES1   0.0000
   184 H3IC    22.7848   4.5570   9.9925   H         1 RES1   0.0000
   185 H3R     33.0602   9.9925  23.1720   H         1 RES1   0.0000
   186 H3TA    28.6075  14.0580  22.7848   H         1 RES1   0.0000
   187 H3OC    32.6730  14.4452  27.2375   H         1 RES1   0.0000
   188 C6IC    24.3588   3.2524  10.0372   C.2       1 RES1   0.0000
   189 C6JB    21.8674   8.5778  12.8712   C.2       1 RES1   0.0000
   190 C6R     31.4862  10.0372  21.8674   C.2       1 RES1   0.0000
   191 C6OC    33.9776  12.8712  27.1928   C.2       1 RES1   0.0000
   192 C6TA    28.6522  15.3626  24.3588   C.2       1 RES1   0.0000
   193 H4JB    21.3551   9.3298  13.1459   H         1 RES1   0.0000
   194 H4IC    24.0841   2.7401   9.2852   H         1 RES1   0.0000
   195 H4R     31.7609   9.2852  21.3551   H         1 RES1   0.0000
   196 H4TA    27.9002  15.8749  24.0841   H         1 RES1   0.0000
   197 H4OC    34.4899  13.1459  27.9448   H         1 RES1   0.0000
   198 C7IC    26.3365   1.7721  10.2531   C.2       1 RES1   0.0000
   199 C7JB    20.3871   8.3619  10.8935   C.2       1 RES1   0.0000
   200 C7R     29.5085  10.2531  20.3871   C.2       1 RES1   0.0000
   201 C7OC    35.4579  10.8935  26.9769   C.2       1 RES1   0.0000
   202 C7TA    28.8681  16.8429  26.3365   C.2       1 RES1   0.0000
   203 Cu1IC   27.0216  37.2300   8.4066   Cu        1 RES1   0.0000
   204 Cu1CB   28.8234  37.2300  10.2084   Cu        1 RES1   0.0000
   205 O1PC    27.8142  35.8853   7.2643   O.co2     1 RES1   0.0000
   206 O2CB    26.3685  35.7203   9.8712   O.co2     1 RES1   0.0000
   207 O3IC    25.4653  37.2300   6.8503   O.3       1 RES1   0.0000
   208 H2PC    25.5435  36.6529   6.0983   H         1 RES1   0.0000
   209 Cu1IC    0.0000  27.0216   8.4066   Cu        1 RES1   0.0000
   210 Cu1CB    0.0000  28.8234  10.2084   Cu        1 RES1   0.0000
   211 O1PC     1.3447  27.8142   7.2643   O.co2     1 RES1   0.0000
   212 O2CB     1.5097  26.3685   9.8712   O.co2     1 RES1   0.0000
   213 O3IC     0.0000  25.4653   6.8503   O.3       1 RES1   0.0000
   214 H2PC     0.5771  25.5435   6.0983   H         1 RES1   0.0000
   215 Cu1HC   27.0216   0.0000  28.8234   Cu        1 RES1   0.0000
   216 Cu1BA   28.8234   0.0000  27.0216   Cu        1 RES1   0.0000
   217 Cu1     28.8234  28.8234  18.6150   Cu        1 RES1   0.0000
   218 O1      29.9657  28.0308  17.2703   O.co2     1 RES1   0.0000
   219 C1      30.3101  26.5152  15.7018   C.2       1 RES1   0.0000
   220 O2      28.4862  26.3685  17.1053   O.co2     1 RES1   0.0000
   221 C2      29.9143  25.4024  14.9676   C.2       1 RES1   0.0000
   222 H1      29.1288  24.9255  15.2159   H         1 RES1   0.0000
   223 O3      30.3797  30.3797  18.6150   O.3       1 RES1   0.0000
   224 H2      31.1317  30.3015  18.0379   H         1 RES1   0.0000
   225 C3      30.6556  24.9858  13.8756   C.2       1 RES1   0.0000
   226 C4      31.8410  25.6664  13.5212   C.2       1 RES1   0.0000
   227 C5      32.2605  26.7773  14.2803   C.2       1 RES1   0.0000
   228 H3      33.0602  27.2375  14.0580   H         1 RES1   0.0000
   229 C6      31.4862  27.1928  15.3626   C.2       1 RES1   0.0000
   230 H4      31.7609  27.9448  15.8749   H         1 RES1   0.0000
   231 C7      29.5085  26.9769  16.8429   C.2       1 RES1   0.0000
   232 Cu1IC   37.2300  27.0216   8.4066   Cu        1 RES1   0.0000
   233 Cu1JB   27.0216  18.6150  10.2084   Cu        1 RES1   0.0000
   234 Cu1VB   27.0216  27.0216  18.6150   Cu        1 RES1   0.0000
   235 Cu1CB   37.2300  28.8234  10.2084   Cu        1 RES1   0.0000
   236 Cu1D    28.8234  18.6150   8.4066   Cu        1 RES1   0.0000
   237 Cu1HC   27.0216  37.2300  28.8234   Cu        1 RES1   0.0000
   238 Cu1BA   28.8234  37.2300  27.0216   Cu        1 RES1   0.0000
   239 Cu1MA   18.6150  27.0216  27.0216   Cu        1 RES1   0.0000
   240 Cu1G    18.6150  28.8234  28.8234   Cu        1 RES1   0.0000
   241 O1IC    35.8853  25.8793   9.1992   O.co2     1 RES1   0.0000
   242 O1JB    27.8142  19.9597  11.3507   O.co2     1 RES1   0.0000
   243 O1R     28.0308  29.9657  19.9597   O.co2     1 RES1   0.0000
   244 O1OC    25.8793  35.8853  28.0308   O.co2     1 RES1   0.0000
   245 O1TA    19.9597  27.8142  25.8793   O.co2     1 RES1   0.0000
   246 O1QB    25.8793  17.2703   9.4158   O.co2     1 RES1   0.0000
   247 C1IC    34.3168  25.5349  10.7148   C.2       1 RES1   0.0000
   248 C1JB    29.3298  21.5282  11.6951   C.2       1 RES1   0.0000
   249 C1R     26.5152  30.3101  21.5282   C.2       1 RES1   0.0000
   250 C1OC    25.5349  34.3168  26.5152   C.2       1 RES1   0.0000
   251 C1TA    21.5282  29.3298  25.5349   C.2       1 RES1   0.0000
   252 O2IC    35.7203  27.3588  10.8615   O.co2     1 RES1   0.0000
   253 O2JB    29.4765  20.1247   9.8712   O.co2     1 RES1   0.0000
   254 O2R     26.3685  28.4862  20.1247   O.co2     1 RES1   0.0000
   255 O2OC    27.3588  35.7203  26.3685   O.co2     1 RES1   0.0000
   256 O2TA    20.1247  29.4765  27.3588   O.co2     1 RES1   0.0000
   257 O2VB    27.3588  29.4765  17.1053   O.co2     1 RES1   0.0000
   258 O2MC    29.4765  27.3588  20.1247   O.co2     1 RES1   0.0000
   259 O2LB    35.7203  28.4862   7.7535   O.co2     1 RES1   0.0000
   260 O2K     26.3685  20.1247   8.7438   O.co2     1 RES1   0.0000
   261 O2D     28.4862  17.1053  10.8615   O.co2     1 RES1   0.0000
   262 C2IC    33.5826  25.9307  11.8276   C.2       1 RES1   0.0000
   263 C2JB    30.4426  22.2624  11.2993   C.2       1 RES1   0.0000
   264 C2R     25.4024  29.9143  22.2624   C.2       1 RES1   0.0000
   265 C2OC    25.9307  33.5826  25.4024   C.2       1 RES1   0.0000
   266 C2TA    22.2624  30.4426  25.9307   C.2       1 RES1   0.0000
   267 H1JB    30.9195  22.0141  10.5138   H         1 RES1   0.0000
   268 H1IC    33.8309  26.7162  12.3045   H         1 RES1   0.0000
   269 H1R     24.9255  29.1288  22.0141   H         1 RES1   0.0000
   270 H1TA    22.0141  30.9195  26.7162   H         1 RES1   0.0000
   271 H1OC    26.7162  33.8309  24.9255   H         1 RES1   0.0000
   272 O3IC    37.2300  25.4653   6.8503   O.3       1 RES1   0.0000
   273 O3JB    25.4653  18.6150  11.7647   O.3       1 RES1   0.0000
   274 H2R     30.3015  31.1317  19.1921   H         1 RES1   0.0000
   275 H2IC    36.6529  24.7133   6.9285   H         1 RES1   0.0000
   276 H2JB    25.5435  19.1921  12.5167   H         1 RES1   0.0000
   277 H2QB    24.7133  18.0379  11.6865   H         1 RES1   0.0000
   278 C3IC    32.4906  25.1894  12.2442   C.2       1 RES1   0.0000
   279 C3JB    30.8592  23.3544  12.0406   C.2       1 RES1   0.0000
   280 C3R     24.9858  30.6556  23.3544   C.2       1 RES1   0.0000
   281 C3OC    25.1894  32.4906  24.9858   C.2       1 RES1   0.0000
   282 C3TA    23.3544  30.8592  25.1894   C.2       1 RES1   0.0000
   283 C4IC    32.1362  24.0040  11.5636   C.2       1 RES1   0.0000
   284 C4JB    30.1786  23.7088  13.2260   C.2       1 RES1   0.0000
   285 C4R     25.6664  31.8410  23.7088   C.2       1 RES1   0.0000
   286 C4OC    24.0040  32.1362  25.6664   C.2       1 RES1   0.0000
   287 C4TA    23.7088  30.1786  24.0040   C.2       1 RES1   0.0000
   288 C5IC    32.8953  23.5845  10.4527   C.2       1 RES1   0.0000
   289 C5JB    29.0677  22.9497  13.6455   C.2       1 RES1   0.0000
   290 C5R     26.7773  32.2605  22.9497   C.2       1 RES1   0.0000
   291 C5OC    23.5845  32.8953  26.7773   C.2       1 RES1   0.0000
   292 C5TA    22.9497  29.0677  23.5845   C.2       1 RES1   0.0000
   293 H3JB    28.6075  23.1720  14.4452   H         1 RES1   0.0000
   294 H3IC    32.6730  22.7848   9.9925   H         1 RES1   0.0000
   295 H3R     27.2375  33.0602  23.1720   H         1 RES1   0.0000
   296 H3TA    23.1720  28.6075  22.7848   H         1 RES1   0.0000
   297 H3OC    22.7848  32.6730  27.2375   H         1 RES1   0.0000
   298 C6IC    33.9776  24.3588  10.0372   C.2       1 RES1   0.0000
   299 C6JB    28.6522  21.8674  12.8712   C.2       1 RES1   0.0000
   300 C6R     27.1928  31.4862  21.8674   C.2       1 RES1   0.0000
   301 C6OC    24.3588  33.9776  27.1928   C.2       1 RES1   0.0000
   302 C6TA    21.8674  28.6522  24.3588   C.2       1 RES1   0.0000
   303 H4JB    27.9002  21.3551  13.1459   H         1 RES1   0.0000
   304 H4IC    34.4899  24.0841   9.2852   H         1 RES1   0.0000
   305 H4R     27.9448  31.7609  21.3551   H         1 RES1   0.0000
   306 H4TA    21.3551  27.9002  24.0841   H         1 RES1   0.0000
   307 H4OC    24.0841  34.4899  27.9448   H         1 RES1   0.0000
   308 C7IC    35.4579  26.3365  10.2531   C.2       1 RES1   0.0000
   309 C7JB    28.8681  20.3871  10.8935   C.2       1 RES1   0.0000
   310 C7R     26.9769  29.5085  20.3871   C.2       1 RES1   0.0000
   311 C7OC    26.3365  35.4579  26.9769   C.2       1 RES1   0.0000
   312 C7TA    20.3871  28.8681  26.3365   C.2       1 RES1   0.0000
   313 Cu1IC   10.2084   0.0000   8.4066   Cu        1 RES1   0.0000
   314 Cu1CB    8.4066   0.0000  10.2084   Cu        1 RES1   0.0000
   315 O1PC     9.4158   1.3447   7.2643   O.co2     1 RES1   0.0000
   316 O2CB    10.8615   1.5097   9.8712   O.co2     1 RES1   0.0000
   317 O3IC    11.7647   0.0000   6.8503   O.3       1 RES1   0.0000
   318 H2PC    11.6865   0.5771   6.0983   H         1 RES1   0.0000
   319 Cu1      8.4066  28.8234  18.6150   Cu        1 RES1   0.0000
   320 O1       9.1992  29.9657  17.2703   O.co2     1 RES1   0.0000
   321 C1      10.7148  30.3101  15.7018   C.2       1 RES1   0.0000
   322 O2      10.8615  28.4862  17.1053   O.co2     1 RES1   0.0000
   323 C2      11.8276  29.9143  14.9676   C.2       1 RES1   0.0000
   324 H1      12.3045  29.1288  15.2159   H         1 RES1   0.0000
   325 O3       6.8503  30.3797  18.6150   O.3       1 RES1   0.0000
   326 H2       6.9285  31.1317  18.0379   H         1 RES1   0.0000
   327 C3      12.2442  30.6556  13.8756   C.2       1 RES1   0.0000
   328 C4      11.5636  31.8410  13.5212   C.2       1 RES1   0.0000
   329 C5      10.4527  32.2605  14.2803   C.2       1 RES1   0.0000
   330 H3       9.9925  33.0602  14.0580   H         1 RES1   0.0000
   331 C6      10.0372  31.4862  15.3626   C.2       1 RES1   0.0000
   332 H4       9.2852  31.7609  15.8749   H         1 RES1   0.0000
   333 C7      10.2531  29.5085  16.8429   C.2       1 RES1   0.0000
   334 Cu1IC   10.2084  37.2300   8.4066   Cu        1 RES1   0.0000
   335 Cu1JB   18.6150  27.0216  10.2084   Cu        1 RES1   0.0000
   336 Cu1VB   10.2084  27.0216  18.6150   Cu        1 RES1   0.0000
   337 Cu1CB    8.4066  37.2300  10.2084   Cu        1 RES1   0.0000
   338 Cu1D    18.6150  28.8234   8.4066   Cu        1 RES1   0.0000
   339 Cu1HC    0.0000  27.0216  28.8234   Cu        1 RES1   0.0000
   340 Cu1BA    0.0000  28.8234  27.0216   Cu        1 RES1   0.0000
   341 Cu1MA   10.2084  18.6150  27.0216   Cu        1 RES1   0.0000
   342 Cu1G     8.4066  18.6150  28.8234   Cu        1 RES1   0.0000
   343 O1IC    11.3507  35.8853   9.1992   O.co2     1 RES1   0.0000
   344 O1JB    17.2703  27.8142  11.3507   O.co2     1 RES1   0.0000
   345 O1R      7.2643  28.0308  19.9597   O.co2     1 RES1   0.0000
   346 O1OC     1.3447  25.8793  28.0308   O.co2     1 RES1   0.0000
   347 O1TA     9.4158  19.9597  25.8793   O.co2     1 RES1   0.0000
   348 O1QB    19.9597  25.8793   9.4158   O.co2     1 RES1   0.0000
   349 C1IC    11.6951  34.3168  10.7148   C.2       1 RES1   0.0000
   350 C1JB    15.7018  29.3298  11.6951   C.2       1 RES1   0.0000
   351 C1R      6.9199  26.5152  21.5282   C.2       1 RES1   0.0000
   352 C1OC     2.9132  25.5349  26.5152   C.2       1 RES1   0.0000
   353 C1TA     7.9002  21.5282  25.5349   C.2       1 RES1   0.0000
   354 O2IC     9.8712  35.7203  10.8615   O.co2     1 RES1   0.0000
   355 O2JB    17.1053  29.4765   9.8712   O.co2     1 RES1   0.0000
   356 O2R      8.7438  26.3685  20.1247   O.co2     1 RES1   0.0000
   357 O2OC     1.5097  27.3588  26.3685   O.co2     1 RES1   0.0000
   358 O2TA     7.7535  20.1247  27.3588   O.co2     1 RES1   0.0000
   359 O2VB     7.7535  27.3588  17.1053   O.co2     1 RES1   0.0000
   360 O2MC     9.8712  29.4765  20.1247   O.co2     1 RES1   0.0000
   361 O2LB     8.7438  35.7203   7.7535   O.co2     1 RES1   0.0000
   362 O2K     17.1053  26.3685   8.7438   O.co2     1 RES1   0.0000
   363 O2D     20.1247  28.4862  10.8615   O.co2     1 RES1   0.0000
   364 C2IC    11.2993  33.5826  11.8276   C.2       1 RES1   0.0000
   365 C2JB    14.9676  30.4426  11.2993   C.2       1 RES1   0.0000
   366 C2R      7.3157  25.4024  22.2624   C.2       1 RES1   0.0000
   367 C2OC     3.6474  25.9307  25.4024   C.2       1 RES1   0.0000
   368 C2TA     6.7874  22.2624  25.9307   C.2       1 RES1   0.0000
   369 H1JB    15.2159  30.9195  10.5138   H         1 RES1   0.0000
   370 H1IC    10.5138  33.8309  12.3045   H         1 RES1   0.0000
   371 H1R      8.1012  24.9255  22.0141   H         1 RES1   0.0000
   372 H1TA     6.3105  22.0141  26.7162   H         1 RES1   0.0000
   373 H1OC     3.3991  26.7162  24.9255   H         1 RES1   0.0000
   374 O3IC    11.7647  37.2300   6.8503   O.3       1 RES1   0.0000
   375 O3JB    18.6150  25.4653  11.7647   O.3       1 RES1   0.0000
   376 H2R      6.0983  30.3015  19.1921   H         1 RES1   0.0000
   377 H2IC    12.5167  36.6529   6.9285   H         1 RES1   0.0000
   378 H2JB    18.0379  25.5435  12.5167   H         1 RES1   0.0000
   379 H2QB    19.1921  24.7133  11.6865   H         1 RES1   0.0000
   380 C3IC    12.0406  32.4906  12.2442   C.2       1 RES1   0.0000
   381 C3JB    13.8756  30.8592  12.0406   C.2       1 RES1   0.0000
   382 C3R      6.5744  24.9858  23.3544   C.2       1 RES1   0.0000
   383 C3OC     4.7394  25.1894  24.9858   C.2       1 RES1   0.0000
   384 C3TA     6.3708  23.3544  25.1894   C.2       1 RES1   0.0000
   385 C4IC    13.2260  32.1362  11.5636   C.2       1 RES1   0.0000
   386 C4JB    13.5212  30.1786  13.2260   C.2       1 RES1   0.0000
   387 C4R      5.3890  25.6664  23.7088   C.2       1 RES1   0.0000
   388 C4OC     5.0938  24.0040  25.6664   C.2       1 RES1   0.0000
   389 C4TA     7.0514  23.7088  24.0040   C.2       1 RES1   0.0000
   390 C5IC    13.6455  32.8953  10.4527   C.2       1 RES1   0.0000
   391 C5JB    14.2803  29.0677  13.6455   C.2       1 RES1   0.0000
   392 C5R      4.9695  26.7773  22.9497   C.2       1 RES1   0.0000
   393 C5OC     4.3347  23.5845  26.7773   C.2       1 RES1   0.0000
   394 C5TA     8.1623  22.9497  23.5845   C.2       1 RES1   0.0000
   395 H3JB    14.0580  28.6075  14.4452   H         1 RES1   0.0000
   396 H3IC    14.4452  32.6730   9.9925   H         1 RES1   0.0000
   397 H3R      4.1698  27.2375  23.1720   H         1 RES1   0.0000
   398 H3TA     8.6225  23.1720  22.7848   H         1 RES1   0.0000
   399 H3OC     4.5570  22.7848  27.2375   H         1 RES1   0.0000
   400 C6IC    12.8712  33.9776  10.0372   C.2       1 RES1   0.0000
   401 C6JB    15.3626  28.6522  12.8712   C.2       1 RES1   0.0000
   402 C6R      5.7438  27.1928  21.8674   C.2       1 RES1   0.0000
   403 C6OC     3.2524  24.3588  27.1928   C.2       1 RES1   0.0000
   404 C6TA     8.5778  21.8674  24.3588   C.2       1 RES1   0.0000
   405 H4JB    15.8749  27.9002  13.1459   H         1 RES1   0.0000
   406 H4IC    13.1459  34.4899   9.2852   H         1 RES1   0.0000
   407 H4R      5.4691  27.9448  21.3551   H         1 RES1   0.0000
   408 H4TA     9.3298  21.3551  24.0841   H         1 RES1   0.0000
   409 H4OC     2.7401  24.0841  27.9448   H         1 RES1   0.0000
   410 C7IC    10.8935  35.4579  10.2531   C.2       1 RES1   0.0000
   411 C7JB    16.8429  28.8681  10.8935   C.2       1 RES1   0.0000
   412 C7R      7.7215  26.9769  20.3871   C.2       1 RES1   0.0000
   413 C7OC     1.7721  26.3365  26.9769   C.2       1 RES1   0.0000
   414 C7TA     8.3619  20.3871  26.3365   C.2       1 RES1   0.0000
   415 Cu1HC   37.2300  27.0216  28.8234   Cu        1 RES1   0.0000
   416 Cu1BA   37.2300  28.8234  27.0216   Cu        1 RES1   0.0000
   417 O1       7.2643  19.9597   9.1992   O.co2     1 RES1   0.0000
   418 C1       6.9199  21.5282  10.7148   C.2       1 RES1   0.0000
   419 C2       7.3157  22.2624  11.8276   C.2       1 RES1   0.0000
   420 H1       8.1012  22.0141  12.3045   H         1 RES1   0.0000
   421 O3       6.8503  18.6150   6.8503   O.3       1 RES1   0.0000
   422 H2       6.0983  19.1921   6.9285   H         1 RES1   0.0000
   423 C3       6.5744  23.3544  12.2442   C.2       1 RES1   0.0000
   424 C4       5.3890  23.7088  11.5636   C.2       1 RES1   0.0000
   425 C5       4.9695  22.9497  10.4527   C.2       1 RES1   0.0000
   426 H3       4.1698  23.1720   9.9925   H         1 RES1   0.0000
   427 C6       5.7438  21.8674  10.0372   C.2       1 RES1   0.0000
   428 H4       5.4691  21.3551   9.2852   H         1 RES1   0.0000
   429 C7       7.7215  20.3871  10.2531   C.2       1 RES1   0.0000
   430 Cu1HC   10.2084   8.4066   0.0000   Cu        1 RES1   0.0000
   431 Cu1BA    8.4066  10.2084   0.0000   Cu        1 RES1   0.0000
   432 O1IC     1.3447  28.0308  11.3507   O.co2     1 RES1   0.0000
   433 O1JB     9.4158  25.8793  17.2703   O.co2     1 RES1   0.0000
   434 O1R      9.1992  17.2703   7.2643   O.co2     1 RES1   0.0000
   435 O1OC    11.3507   9.1992   1.3447   O.co2     1 RES1   0.0000
   436 O1QB    11.3507  27.8142  19.9597   O.co2     1 RES1   0.0000
   437 C1IC     2.9132  26.5152  11.6951   C.2       1 RES1   0.0000
   438 C1JB     7.9002  25.5349  15.7018   C.2       1 RES1   0.0000
   439 C1R     10.7148  15.7018   6.9199   C.2       1 RES1   0.0000
   440 C1OC    11.6951  10.7148   2.9132   C.2       1 RES1   0.0000
   441 C1TA    15.7018  11.6951   7.9002   C.2       1 RES1   0.0000
   442 O2OC     9.8712  10.8615   1.5097   O.co2     1 RES1   0.0000
   443 O2TA    17.1053   9.8712   7.7535   O.co2     1 RES1   0.0000
   444 O2VB     9.8712  20.1247   7.7535   O.co2     1 RES1   0.0000
   445 O2LB     1.5097  29.4765   8.7438   O.co2     1 RES1   0.0000
   446 C2IC     3.6474  25.4024  11.2993   C.2       1 RES1   0.0000
   447 C2JB     6.7874  25.9307  14.9676   C.2       1 RES1   0.0000
   448 C2R     11.8276  14.9676   7.3157   C.2       1 RES1   0.0000
   449 C2OC    11.2993  11.8276   3.6474   C.2       1 RES1   0.0000
   450 C2TA    14.9676  11.2993   6.7874   C.2       1 RES1   0.0000
   451 H1JB     6.3105  26.7162  15.2159   H         1 RES1   0.0000
   452 H1IC     3.3991  24.9255  10.5138   H         1 RES1   0.0000
   453 H1R     12.3045  15.2159   8.1012   H         1 RES1   0.0000
   454 H1TA    15.2159  10.5138   6.3105   H         1 RES1   0.0000
   455 H1OC    10.5138  12.3045   3.3991   H         1 RES1   0.0000
   456 O3IC     0.0000  30.3797  11.7647   O.3       1 RES1   0.0000
   457 O3JB    11.7647  25.4653  18.6150   O.3       1 RES1   0.0000
   458 H2R      6.9285  18.0379   6.0983   H         1 RES1   0.0000
   459 H2IC     0.5771  30.3015  12.5167   H         1 RES1   0.0000
   460 H2JB    11.6865  24.7133  18.0379   H         1 RES1   0.0000
   461 H2QB    12.5167  25.5435  19.1921   H         1 RES1   0.0000
   462 C3IC     4.7394  24.9858  12.0406   C.2       1 RES1   0.0000
   463 C3JB     6.3708  25.1894  13.8756   C.2       1 RES1   0.0000
   464 C3R     12.2442  13.8756   6.5744   C.2       1 RES1   0.0000
   465 C3OC    12.0406  12.2442   4.7394   C.2       1 RES1   0.0000
   466 C3TA    13.8756  12.0406   6.3708   C.2       1 RES1   0.0000
   467 C4IC     5.0938  25.6664  13.2260   C.2       1 RES1   0.0000
   468 C4JB     7.0514  24.0040  13.5212   C.2       1 RES1   0.0000
   469 C4R     11.5636  13.5212   5.3890   C.2       1 RES1   0.0000
   470 C4OC    13.2260  11.5636   5.0938   C.2       1 RES1   0.0000
   471 C4TA    13.5212  13.2260   7.0514   C.2       1 RES1   0.0000
   472 C5IC     4.3347  26.7773  13.6455   C.2       1 RES1   0.0000
   473 C5JB     8.1623  23.5845  14.2803   C.2       1 RES1   0.0000
   474 C5R     10.4527  14.2803   4.9695   C.2       1 RES1   0.0000
   475 C5OC    13.6455  10.4527   4.3347   C.2       1 RES1   0.0000
   476 C5TA    14.2803  13.6455   8.1623   C.2       1 RES1   0.0000
   477 H3JB     8.6225  22.7848  14.0580   H         1 RES1   0.0000
   478 H3IC     4.5570  27.2375  14.4452   H         1 RES1   0.0000
   479 H3R      9.9925  14.0580   4.1698   H         1 RES1   0.0000
   480 H3TA    14.0580  14.4452   8.6225   H         1 RES1   0.0000
   481 H3OC    14.4452   9.9925   4.5570   H         1 RES1   0.0000
   482 C6IC     3.2524  27.1928  12.8712   C.2       1 RES1   0.0000
   483 C6JB     8.5778  24.3588  15.3626   C.2       1 RES1   0.0000
   484 C6R     10.0372  15.3626   5.7438   C.2       1 RES1   0.0000
   485 C6OC    12.8712  10.0372   3.2524   C.2       1 RES1   0.0000
   486 C6TA    15.3626  12.8712   8.5778   C.2       1 RES1   0.0000
   487 H4JB     9.3298  24.0841  15.8749   H         1 RES1   0.0000
   488 H4IC     2.7401  27.9448  13.1459   H         1 RES1   0.0000
   489 H4R      9.2852  15.8749   5.4691   H         1 RES1   0.0000
   490 H4TA    15.8749  13.1459   9.3298   H         1 RES1   0.0000
   491 H4OC    13.1459   9.2852   2.7401   H         1 RES1   0.0000
   492 C7IC     1.7721  26.9769  10.8935   C.2       1 RES1   0.0000
   493 C7JB     8.3619  26.3365  16.8429   C.2       1 RES1   0.0000
   494 C7R     10.2531  16.8429   7.7215   C.2       1 RES1   0.0000
   495 C7OC    10.8935  10.2531   1.7721   C.2       1 RES1   0.0000
   496 C7TA    16.8429  10.8935   8.3619   C.2       1 RES1   0.0000
   497 Cu1HC   10.2084   8.4066  37.2300   Cu        1 RES1   0.0000
   498 Cu1BA    8.4066  10.2084  37.2300   Cu        1 RES1   0.0000
   499 O1PC    35.8853  29.9657   9.4158   O.co2     1 RES1   0.0000
   500 O3IC    37.2300  30.3797  11.7647   O.3       1 RES1   0.0000
   501 H2PC    36.6529  31.1317  11.6865   H         1 RES1   0.0000
   502 O1QB    11.3507  17.2703  27.8142   O.co2     1 RES1   0.0000
   503 O2LB     1.5097  28.4862  29.4765   O.co2     1 RES1   0.0000
   504 O2K     10.8615  20.1247  28.4862   O.co2     1 RES1   0.0000
   505 O2D      8.7438  17.1053  26.3685   O.co2     1 RES1   0.0000
   506 O3IC     0.0000  25.4653  30.3797   O.3       1 RES1   0.0000
   507 O3JB    11.7647  18.6150  25.4653   O.3       1 RES1   0.0000
   508 H2IC     0.5771  24.7133  30.3015   H         1 RES1   0.0000
   509 H2JB    11.6865  19.1921  24.7133   H         1 RES1   0.0000
   510 H2QB    12.5167  18.0379  25.5435   H         1 RES1   0.0000
   511 O1PC    35.8853  27.8142  29.9657   O.co2     1 RES1   0.0000
   512 O2CB    35.7203  26.3685  27.3588   O.co2     1 RES1   0.0000
   513 O3IC    37.2300  25.4653  30.3797   O.3       1 RES1   0.0000
   514 H2PC    36.6529  25.5435  31.1317   H         1 RES1   0.0000
   515 Cu1HC   10.2084  28.8234   0.0000   Cu        1 RES1   0.0000
   516 Cu1BA    8.4066  27.0216   0.0000   Cu        1 RES1   0.0000
   517 O1       7.2643  17.2703  28.0308   O.co2     1 RES1   0.0000
   518 C1       6.9199  15.7018  26.5152   C.2       1 RES1   0.0000
   519 C2       7.3157  14.9676  25.4024   C.2       1 RES1   0.0000
   520 H1       8.1012  15.2159  24.9255   H         1 RES1   0.0000
   521 O3       6.8503  18.6150  30.3797   O.3       1 RES1   0.0000
   522 H2       6.0983  18.0379  30.3015   H         1 RES1   0.0000
   523 C3       6.5744  13.8756  24.9858   C.2       1 RES1   0.0000
   524 C4       5.3890  13.5212  25.6664   C.2       1 RES1   0.0000
   525 C5       4.9695  14.2803  26.7773   C.2       1 RES1   0.0000
   526 H3       4.1698  14.0580  27.2375   H         1 RES1   0.0000
   527 C6       5.7438  15.3626  27.1928   C.2       1 RES1   0.0000
   528 H4       5.4691  15.8749  27.9448   H         1 RES1   0.0000
   529 C7       7.7215  16.8429  26.9769   C.2       1 RES1   0.0000
   530 Cu1HC   10.2084  28.8234  37.2300   Cu        1 RES1   0.0000
   531 Cu1BA    8.4066  27.0216  37.2300   Cu        1 RES1   0.0000
   532 O1IC     1.3447   9.1992  25.8793   O.co2     1 RES1   0.0000
   533 O1JB     9.4158  11.3507  19.9597   O.co2     1 RES1   0.0000
   534 O1R      9.1992  19.9597  29.9657   O.co2     1 RES1   0.0000
   535 O1OC    11.3507  28.0308  35.8853   O.co2     1 RES1   0.0000
   536 O1TA    17.2703  25.8793  27.8142   O.co2     1 RES1   0.0000
   537 O1QB    11.3507   9.4158  17.2703   O.co2     1 RES1   0.0000
   538 C1IC     2.9132  10.7148  25.5349   C.2       1 RES1   0.0000
   539 C1JB     7.9002  11.6951  21.5282   C.2       1 RES1   0.0000
   540 C1R     10.7148  21.5282  30.3101   C.2       1 RES1   0.0000
   541 C1OC    11.6951  26.5152  34.3168   C.2       1 RES1   0.0000
   542 C1TA    15.7018  25.5349  29.3298   C.2       1 RES1   0.0000
   543 O2IC     1.5097  10.8615  27.3588   O.co2     1 RES1   0.0000
   544 O2OC     9.8712  26.3685  35.7203   O.co2     1 RES1   0.0000
   545 O2TA    17.1053  27.3588  29.4765   O.co2     1 RES1   0.0000
   546 O2VB     9.8712  17.1053  29.4765   O.co2     1 RES1   0.0000
   547 O2LB     1.5097   7.7535  28.4862   O.co2     1 RES1   0.0000
   548 C2IC     3.6474  11.8276  25.9307   C.2       1 RES1   0.0000
   549 C2JB     6.7874  11.2993  22.2624   C.2       1 RES1   0.0000
   550 C2R     11.8276  22.2624  29.9143   C.2       1 RES1   0.0000
   551 C2OC    11.2993  25.4024  33.5826   C.2       1 RES1   0.0000
   552 C2TA    14.9676  25.9307  30.4426   C.2       1 RES1   0.0000
   553 H1JB     6.3105  10.5138  22.0141   H         1 RES1   0.0000
   554 H1IC     3.3991  12.3045  26.7162   H         1 RES1   0.0000
   555 H1R     12.3045  22.0141  29.1288   H         1 RES1   0.0000
   556 H1TA    15.2159  26.7162  30.9195   H         1 RES1   0.0000
   557 H1OC    10.5138  24.9255  33.8309   H         1 RES1   0.0000
   558 O3IC     0.0000   6.8503  25.4653   O.3       1 RES1   0.0000
   559 O3JB    11.7647  11.7647  18.6150   O.3       1 RES1   0.0000
   560 H2R      6.9285  19.1921  31.1317   H         1 RES1   0.0000
   561 H2IC     0.5771   6.9285  24.7133   H         1 RES1   0.0000
   562 H2JB    11.6865  12.5167  19.1921   H         1 RES1   0.0000
   563 H2QB    12.5167  11.6865  18.0379   H         1 RES1   0.0000
   564 C3IC     4.7394  12.2442  25.1894   C.2       1 RES1   0.0000
   565 C3JB     6.3708  12.0406  23.3544   C.2       1 RES1   0.0000
   566 C3R     12.2442  23.3544  30.6556   C.2       1 RES1   0.0000
   567 C3OC    12.0406  24.9858  32.4906   C.2       1 RES1   0.0000
   568 C3TA    13.8756  25.1894  30.8592   C.2       1 RES1   0.0000
   569 C4IC     5.0938  11.5636  24.0040   C.2       1 RES1   0.0000
   570 C4JB     7.0514  13.2260  23.7088   C.2       1 RES1   0.0000
   571 C4R     11.5636  23.7088  31.8410   C.2       1 RES1   0.0000
   572 C4OC    13.2260  25.6664  32.1362   C.2       1 RES1   0.0000
   573 C4TA    13.5212  24.0040  30.1786   C.2       1 RES1   0.0000
   574 C5IC     4.3347  10.4527  23.5845   C.2       1 RES1   0.0000
   575 C5JB     8.1623  13.6455  22.9497   C.2       1 RES1   0.0000
   576 C5R     10.4527  22.9497  32.2605   C.2       1 RES1   0.0000
   577 C5OC    13.6455  26.7773  32.8953   C.2       1 RES1   0.0000
   578 C5TA    14.2803  23.5845  29.0677   C.2       1 RES1   0.0000
   579 H3JB     8.6225  14.4452  23.1720   H         1 RES1   0.0000
   580 H3IC     4.5570   9.9925  22.7848   H         1 RES1   0.0000
   581 H3R      9.9925  23.1720  33.0602   H         1 RES1   0.0000
   582 H3TA    14.0580  22.7848  28.6075   H         1 RES1   0.0000
   583 H3OC    14.4452  27.2375  32.6730   H         1 RES1   0.0000
   584 C6IC     3.2524  10.0372  24.3588   C.2       1 RES1   0.0000
   585 C6JB     8.5778  12.8712  21.8674   C.2       1 RES1   0.0000
   586 C6R     10.0372  21.8674  31.4862   C.2       1 RES1   0.0000
   587 C6OC    12.8712  27.1928  33.9776   C.2       1 RES1   0.0000
   588 C6TA    15.3626  24.3588  28.6522   C.2       1 RES1   0.0000
   589 H4JB     9.3298  13.1459  21.3551   H         1 RES1   0.0000
   590 H4IC     2.7401   9.2852  24.0841   H         1 RES1   0.0000
   591 H4R      9.2852  21.3551  31.7609   H         1 RES1   0.0000
   592 H4TA    15.8749  24.0841  27.9002   H         1 RES1   0.0000
   593 H4OC    13.1459  27.9448  34.4899   H         1 RES1   0.0000
   594 C7IC     1.7721  10.2531  26.3365   C.2       1 RES1   0.0000
   595 C7JB     8.3619  10.8935  20.3871   C.2       1 RES1   0.0000
   596 C7R     10.2531  20.3871  29.5085   C.2       1 RES1   0.0000
   597 C7OC    10.8935  26.9769  35.4579   C.2       1 RES1   0.0000
   598 C7TA    16.8429  26.3365  28.8681   C.2       1 RES1   0.0000
   599 O1PC    35.8853   7.2643  27.8142   O.co2     1 RES1   0.0000
   600 O3IC    37.2300   6.8503  25.4653   O.3       1 RES1   0.0000
   601 H2PC    36.6529   6.0983  25.5435   H         1 RES1   0.0000
   602 O1PC     7.2643   9.4158   1.3447   O.co2     1 RES1   0.0000
   603 O3IC     6.8503  11.7647   0.0000   O.3       1 RES1   0.0000
   604 H2PC     6.0983  11.6865   0.5771   H         1 RES1   0.0000
   605 O1      17.2703   9.1992  29.9657   O.co2     1 RES1   0.0000
   606 C1      15.7018  10.7148  30.3101   C.2       1 RES1   0.0000
   607 O2      17.1053  10.8615  28.4862   O.co2     1 RES1   0.0000
   608 C2      14.9676  11.8276  29.9143   C.2       1 RES1   0.0000
   609 H1      15.2159  12.3045  29.1288   H         1 RES1   0.0000
   610 O3      18.6150   6.8503  30.3797   O.3       1 RES1   0.0000
   611 H2      18.0379   6.9285  31.1317   H         1 RES1   0.0000
   612 C3      13.8756  12.2442  30.6556   C.2       1 RES1   0.0000
   613 C4      13.5212  11.5636  31.8410   C.2       1 RES1   0.0000
   614 C5      14.2803  10.4527  32.2605   C.2       1 RES1   0.0000
   615 H3      14.0580   9.9925  33.0602   H         1 RES1   0.0000
   616 C6      15.3626  10.0372  31.4862   C.2       1 RES1   0.0000
   617 H4      15.8749   9.2852  31.7609   H         1 RES1   0.0000
   618 C7      16.8429  10.2531  29.5085   C.2       1 RES1   0.0000
   619 O1IC     9.1992  11.3507  35.8853   O.co2     1 RES1   0.0000
   620 O1R     19.9597   7.2643  28.0308   O.co2     1 RES1   0.0000
   621 O1OC    28.0308   1.3447  25.8793   O.co2     1 RES1   0.0000
   622 O1TA    25.8793   9.4158  19.9597   O.co2     1 RES1   0.0000
   623 C1IC    10.7148  11.6951  34.3168   C.2       1 RES1   0.0000
   624 C1JB    11.6951  15.7018  29.3298   C.2       1 RES1   0.0000
   625 C1R     21.5282   6.9199  26.5152   C.2       1 RES1   0.0000
   626 C1OC    26.5152   2.9132  25.5349   C.2       1 RES1   0.0000
   627 C1TA    25.5349   7.9002  21.5282   C.2       1 RES1   0.0000
   628 O2IC    10.8615   9.8712  35.7203   O.co2     1 RES1   0.0000
   629 O2R     20.1247   8.7438  26.3685   O.co2     1 RES1   0.0000
   630 O2OC    26.3685   1.5097  27.3588   O.co2     1 RES1   0.0000
   631 O2MC    20.1247   9.8712  29.4765   O.co2     1 RES1   0.0000
   632 O2LB     7.7535   8.7438  35.7203   O.co2     1 RES1   0.0000
   633 C2IC    11.8276  11.2993  33.5826   C.2       1 RES1   0.0000
   634 C2JB    11.2993  14.9676  30.4426   C.2       1 RES1   0.0000
   635 C2R     22.2624   7.3157  25.4024   C.2       1 RES1   0.0000
   636 C2OC    25.4024   3.6474  25.9307   C.2       1 RES1   0.0000
   637 C2TA    25.9307   6.7874  22.2624   C.2       1 RES1   0.0000
   638 H1JB    10.5138  15.2159  30.9195   H         1 RES1   0.0000
   639 H1IC    12.3045  10.5138  33.8309   H         1 RES1   0.0000
   640 H1R     22.0141   8.1012  24.9255   H         1 RES1   0.0000
   641 H1TA    26.7162   6.3105  22.0141   H         1 RES1   0.0000
   642 H1OC    24.9255   3.3991  26.7162   H         1 RES1   0.0000
   643 O3IC     6.8503  11.7647  37.2300   O.3       1 RES1   0.0000
   644 H2R     19.1921   6.0983  30.3015   H         1 RES1   0.0000
   645 H2IC     6.9285  12.5167  36.6529   H         1 RES1   0.0000
   646 C3IC    12.2442  12.0406  32.4906   C.2       1 RES1   0.0000
   647 C3JB    12.0406  13.8756  30.8592   C.2       1 RES1   0.0000
   648 C3R     23.3544   6.5744  24.9858   C.2       1 RES1   0.0000
   649 C3OC    24.9858   4.7394  25.1894   C.2       1 RES1   0.0000
   650 C3TA    25.1894   6.3708  23.3544   C.2       1 RES1   0.0000
   651 C4IC    11.5636  13.2260  32.1362   C.2       1 RES1   0.0000
   652 C4JB    13.2260  13.5212  30.1786   C.2       1 RES1   0.0000
   653 C4R     23.7088   5.3890  25.6664   C.2       1 RES1   0.0000
   654 C4OC    25.6664   5.0938  24.0040   C.2       1 RES1   0.0000
   655 C4TA    24.0040   7.0514  23.7088   C.2       1 RES1   0.0000
   656 C5IC    10.4527  13.6455  32.8953   C.2       1 RES1   0.0000
   657 C5JB    13.6455  14.2803  29.0677   C.2       1 RES1   0.0000
   658 C5R     22.9497   4.9695  26.7773   C.2       1 RES1   0.0000
   659 C5OC    26.7773   4.3347  23.5845   C.2       1 RES1   0.0000
   660 C5TA    23.5845   8.1623  22.9497   C.2       1 RES1   0.0000
   661 H3JB    14.4452  14.0580  28.6075   H         1 RES1   0.0000
   662 H3IC     9.9925  14.4452  32.6730   H         1 RES1   0.0000
   663 H3R     23.1720   4.1698  27.2375   H         1 RES1   0.0000
   664 H3TA    22.7848   8.6225  23.1720   H         1 RES1   0.0000
   665 H3OC    27.2375   4.5570  22.7848   H         1 RES1   0.0000
   666 C6IC    10.0372  12.8712  33.9776   C.2       1 RES1   0.0000
   667 C6JB    12.8712  15.3626  28.6522   C.2       1 RES1   0.0000
   668 C6R     21.8674   5.7438  27.1928   C.2       1 RES1   0.0000
   669 C6OC    27.1928   3.2524  24.3588   C.2       1 RES1   0.0000
   670 C6TA    24.3588   8.5778  21.8674   C.2       1 RES1   0.0000
   671 H4JB    13.1459  15.8749  27.9002   H         1 RES1   0.0000
   672 H4IC     9.2852  13.1459  34.4899   H         1 RES1   0.0000
   673 H4R     21.3551   5.4691  27.9448   H         1 RES1   0.0000
   674 H4TA    24.0841   9.3298  21.3551   H         1 RES1   0.0000
   675 H4OC    27.9448   2.7401  24.0841   H         1 RES1   0.0000
   676 C7IC    10.2531  10.8935  35.4579   C.2       1 RES1   0.0000
   677 C7JB    10.8935  16.8429  28.8681   C.2       1 RES1   0.0000
   678 C7R     20.3871   7.7215  26.9769   C.2       1 RES1   0.0000
   679 C7OC    26.9769   1.7721  26.3365   C.2       1 RES1   0.0000
   680 C7TA    26.3365   8.3619  20.3871   C.2       1 RES1   0.0000
   681 O1PC     1.3447   9.4158  29.9657   O.co2     1 RES1   0.0000
   682 O3IC     0.0000  11.7647  30.3797   O.3       1 RES1   0.0000
   683 H2PC     0.5771  11.6865  31.1317   H         1 RES1   0.0000
   684 O1QB    25.8793  19.9597  27.8142   O.co2     1 RES1   0.0000
   685 O2LB    35.7203   8.7438  29.4765   O.co2     1 RES1   0.0000
   686 O2K     26.3685  17.1053  28.4862   O.co2     1 RES1   0.0000
   687 O2D     28.4862  20.1247  26.3685   O.co2     1 RES1   0.0000
   688 O3IC    37.2300  11.7647  30.3797   O.3       1 RES1   0.0000
   689 O3JB    25.4653  18.6150  25.4653   O.3       1 RES1   0.0000
   690 H2IC    36.6529  12.5167  30.3015   H         1 RES1   0.0000
   691 H2JB    25.5435  18.0379  24.7133   H         1 RES1   0.0000
   692 H2QB    24.7133  19.1921  25.5435   H         1 RES1   0.0000
   693 O1      19.9597   9.1992   7.2643   O.co2     1 RES1   0.0000
   694 C1      21.5282  10.7148   6.9199   C.2       1 RES1   0.0000
   695 C2      22.2624  11.8276   7.3157   C.2       1 RES1   0.0000
   696 H1      22.0141  12.3045   8.1012   H         1 RES1   0.0000
   697 O3      18.6150   6.8503   6.8503   O.3       1 RES1   0.0000
   698 H2      19.1921   6.9285   6.0983   H         1 RES1   0.0000
   699 C3      23.3544  12.2442   6.5744   C.2       1 RES1   0.0000
   700 C4      23.7088  11.5636   5.3890   C.2       1 RES1   0.0000
   701 C5      22.9497  10.4527   4.9695   C.2       1 RES1   0.0000
   702 H3      23.1720   9.9925   4.1698   H         1 RES1   0.0000
   703 C6      21.8674  10.0372   5.7438   C.2       1 RES1   0.0000
   704 H4      21.3551   9.2852   5.4691   H         1 RES1   0.0000
   705 C7      20.3871  10.2531   7.7215   C.2       1 RES1   0.0000
   706 Cu1IC   28.8234  10.2084   0.0000   Cu        1 RES1   0.0000
   707 Cu1CB   27.0216   8.4066   0.0000   Cu        1 RES1   0.0000
   708 O1IC    28.0308  11.3507   1.3447   O.co2     1 RES1   0.0000
   709 O1R     17.2703   7.2643   9.1992   O.co2     1 RES1   0.0000
   710 O1OC     9.1992   1.3447  11.3507   O.co2     1 RES1   0.0000
   711 C1IC    26.5152  11.6951   2.9132   C.2       1 RES1   0.0000
   712 C1JB    25.5349  15.7018   7.9002   C.2       1 RES1   0.0000
   713 C1R     15.7018   6.9199  10.7148   C.2       1 RES1   0.0000
   714 C1OC    10.7148   2.9132  11.6951   C.2       1 RES1   0.0000
   715 C1TA    11.6951   7.9002  15.7018   C.2       1 RES1   0.0000
   716 O2IC    26.3685   9.8712   1.5097   O.co2     1 RES1   0.0000
   717 O2JB    27.3588  17.1053   7.7535   O.co2     1 RES1   0.0000
   718 O2LB    29.4765   8.7438   1.5097   O.co2     1 RES1   0.0000
   719 C2IC    25.4024  11.2993   3.6474   C.2       1 RES1   0.0000
   720 C2JB    25.9307  14.9676   6.7874   C.2       1 RES1   0.0000
   721 C2R     14.9676   7.3157  11.8276   C.2       1 RES1   0.0000
   722 C2OC    11.8276   3.6474  11.2993   C.2       1 RES1   0.0000
   723 C2TA    11.2993   6.7874  14.9676   C.2       1 RES1   0.0000
   724 H1JB    26.7162  15.2159   6.3105   H         1 RES1   0.0000
   725 H1IC    24.9255  10.5138   3.3991   H         1 RES1   0.0000
   726 H1R     15.2159   8.1012  12.3045   H         1 RES1   0.0000
   727 H1TA    10.5138   6.3105  15.2159   H         1 RES1   0.0000
   728 H1OC    12.3045   3.3991  10.5138   H         1 RES1   0.0000
   729 O3IC    30.3797  11.7647   0.0000   O.3       1 RES1   0.0000
   730 H2R     18.0379   6.0983   6.9285   H         1 RES1   0.0000
   731 H2IC    30.3015  12.5167   0.5771   H         1 RES1   0.0000
   732 C3IC    24.9858  12.0406   4.7394   C.2       1 RES1   0.0000
   733 C3JB    25.1894  13.8756   6.3708   C.2       1 RES1   0.0000
   734 C3R     13.8756   6.5744  12.2442   C.2       1 RES1   0.0000
   735 C3OC    12.2442   4.7394  12.0406   C.2       1 RES1   0.0000
   736 C3TA    12.0406   6.3708  13.8756   C.2       1 RES1   0.0000
   737 C4IC    25.6664  13.2260   5.0938   C.2       1 RES1   0.0000
   738 C4JB    24.0040  13.5212   7.0514   C.2       1 RES1   0.0000
   739 C4R     13.5212   5.3890  11.5636   C.2       1 RES1   0.0000
   740 C4OC    11.5636   5.0938  13.2260   C.2       1 RES1   0.0000
   741 C4TA    13.2260   7.0514  13.5212   C.2       1 RES1   0.0000
   742 C5IC    26.7773  13.6455   4.3347   C.2       1 RES1   0.0000
   743 C5JB    23.5845  14.2803   8.1623   C.2       1 RES1   0.0000
   744 C5R     14.2803   4.9695  10.4527   C.2       1 RES1   0.0000
   745 C5OC    10.4527   4.3347  13.6455   C.2       1 RES1   0.0000
   746 C5TA    13.6455   8.1623  14.2803   C.2       1 RES1   0.0000
   747 H3JB    22.7848  14.0580   8.6225   H         1 RES1   0.0000
   748 H3IC    27.2375  14.4452   4.5570   H         1 RES1   0.0000
   749 H3R     14.0580   4.1698   9.9925   H         1 RES1   0.0000
   750 H3TA    14.4452   8.6225  14.0580   H         1 RES1   0.0000
   751 H3OC     9.9925   4.5570  14.4452   H         1 RES1   0.0000
   752 C6IC    27.1928  12.8712   3.2524   C.2       1 RES1   0.0000
   753 C6JB    24.3588  15.3626   8.5778   C.2       1 RES1   0.0000
   754 C6R     15.3626   5.7438  10.0372   C.2       1 RES1   0.0000
   755 C6OC    10.0372   3.2524  12.8712   C.2       1 RES1   0.0000
   756 C6TA    12.8712   8.5778  15.3626   C.2       1 RES1   0.0000
   757 H4JB    24.0841  15.8749   9.3298   H         1 RES1   0.0000
   758 H4IC    27.9448  13.1459   2.7401   H         1 RES1   0.0000
   759 H4R     15.8749   5.4691   9.2852   H         1 RES1   0.0000
   760 H4TA    13.1459   9.3298  15.8749   H         1 RES1   0.0000
   761 H4OC     9.2852   2.7401  13.1459   H         1 RES1   0.0000
   762 C7IC    26.9769  10.8935   1.7721   C.2       1 RES1   0.0000
   763 C7JB    26.3365  16.8429   8.3619   C.2       1 RES1   0.0000
   764 C7R     16.8429   7.7215  10.2531   C.2       1 RES1   0.0000
   765 C7OC    10.2531   1.7721  10.8935   C.2       1 RES1   0.0000
   766 C7TA    10.8935   8.3619  16.8429   C.2       1 RES1   0.0000
   767 Cu1IC   28.8234  10.2084  37.2300   Cu        1 RES1   0.0000
   768 Cu1CB   27.0216   8.4066  37.2300   Cu        1 RES1   0.0000
   769 O1PC    29.9657   9.4158  35.8853   O.co2     1 RES1   0.0000
   770 O2CB    27.3588  10.8615  35.7203   O.co2     1 RES1   0.0000
   771 O3IC    30.3797  11.7647  37.2300   O.3       1 RES1   0.0000
   772 H2PC    31.1317  11.6865  36.6529   H         1 RES1   0.0000
   773 O2LB     7.7535   1.5097   8.7438   O.co2     1 RES1   0.0000
   774 O3IC     6.8503   0.0000  11.7647   O.3       1 RES1   0.0000
   775 H2IC     6.9285   0.5771  12.5167   H         1 RES1   0.0000
   776 O1PC     7.2643  35.8853   9.4158   O.co2     1 RES1   0.0000
   777 O3IC     6.8503  37.2300  11.7647   O.3       1 RES1   0.0000
   778 H2PC     6.0983  36.6529  11.6865   H         1 RES1   0.0000
   779 O2LB     8.7438   7.7535   1.5097   O.co2     1 RES1   0.0000
   780 O3IC    11.7647   6.8503   0.0000   O.3       1 RES1   0.0000
   781 H2IC    12.5167   6.9285   0.5771   H         1 RES1   0.0000
   782 O1PC     9.4158   7.2643  35.8853   O.co2     1 RES1   0.0000
   783 O3IC    11.7647   6.8503  37.2300   O.3       1 RES1   0.0000
   784 H2PC    11.6865   6.0983  36.6529   H         1 RES1   0.0000
   785 O1      28.0308  19.9597   7.2643   O.co2     1 RES1   0.0000
   786 C1      26.5152  21.5282   6.9199   C.2       1 RES1   0.0000
   787 C2      25.4024  22.2624   7.3157   C.2       1 RES1   0.0000
   788 H1      24.9255  22.0141   8.1012   H         1 RES1   0.0000
   789 O3      30.3797  18.6150   6.8503   O.3       1 RES1   0.0000
   790 H2      30.3015  19.1921   6.0983   H         1 RES1   0.0000
   791 C3      24.9858  23.3544   6.5744   C.2       1 RES1   0.0000
   792 C4      25.6664  23.7088   5.3890   C.2       1 RES1   0.0000
   793 C5      26.7773  22.9497   4.9695   C.2       1 RES1   0.0000
   794 H3      27.2375  23.1720   4.1698   H         1 RES1   0.0000
   795 C6      27.1928  21.8674   5.7438   C.2       1 RES1   0.0000
   796 H4      27.9448  21.3551   5.4691   H         1 RES1   0.0000
   797 C7      26.9769  20.3871   7.7215   C.2       1 RES1   0.0000
   798 Cu1IC   27.0216  28.8234   0.0000   Cu        1 RES1   0.0000
   799 Cu1CB   28.8234  27.0216   0.0000   Cu        1 RES1   0.0000
   800 O1IC    25.8793  28.0308   1.3447   O.co2     1 RES1   0.0000
   801 O1R     29.9657  17.2703   9.1992   O.co2     1 RES1   0.0000
   802 O1OC    35.8853   9.1992  11.3507   O.co2     1 RES1   0.0000
   803 O1TA    27.8142  11.3507  17.2703   O.co2     1 RES1   0.0000
   804 C1IC    25.5349  26.5152   2.9132   C.2       1 RES1   0.0000
   805 C1JB    21.5282  25.5349   7.9002   C.2       1 RES1   0.0000
   806 C1R     30.3101  15.7018  10.7148   C.2       1 RES1   0.0000
   807 C1OC    34.3168  10.7148  11.6951   C.2       1 RES1   0.0000
   808 C1TA    29.3298  11.6951  15.7018   C.2       1 RES1   0.0000
   809 O2IC    27.3588  26.3685   1.5097   O.co2     1 RES1   0.0000
   810 O2JB    20.1247  27.3588   7.7535   O.co2     1 RES1   0.0000
   811 O2LB    28.4862  29.4765   1.5097   O.co2     1 RES1   0.0000
   812 C2IC    25.9307  25.4024   3.6474   C.2       1 RES1   0.0000
   813 C2JB    22.2624  25.9307   6.7874   C.2       1 RES1   0.0000
   814 C2R     29.9143  14.9676  11.8276   C.2       1 RES1   0.0000
   815 C2OC    33.5826  11.8276  11.2993   C.2       1 RES1   0.0000
   816 C2TA    30.4426  11.2993  14.9676   C.2       1 RES1   0.0000
   817 H1JB    22.0141  26.7162   6.3105   H         1 RES1   0.0000
   818 H1IC    26.7162  24.9255   3.3991   H         1 RES1   0.0000
   819 H1R     29.1288  15.2159  12.3045   H         1 RES1   0.0000
   820 H1TA    30.9195  10.5138  15.2159   H         1 RES1   0.0000
   821 H1OC    33.8309  12.3045  10.5138   H         1 RES1   0.0000
   822 O3IC    25.4653  30.3797   0.0000   O.3       1 RES1   0.0000
   823 H2R     31.1317  18.0379   6.9285   H         1 RES1   0.0000
   824 H2IC    24.7133  30.3015   0.5771   H         1 RES1   0.0000
   825 C3IC    25.1894  24.9858   4.7394   C.2       1 RES1   0.0000
   826 C3JB    23.3544  25.1894   6.3708   C.2       1 RES1   0.0000
   827 C3R     30.6556  13.8756  12.2442   C.2       1 RES1   0.0000
   828 C3OC    32.4906  12.2442  12.0406   C.2       1 RES1   0.0000
   829 C3TA    30.8592  12.0406  13.8756   C.2       1 RES1   0.0000
   830 C4IC    24.0040  25.6664   5.0938   C.2       1 RES1   0.0000
   831 C4JB    23.7088  24.0040   7.0514   C.2       1 RES1   0.0000
   832 C4R     31.8410  13.5212  11.5636   C.2       1 RES1   0.0000
   833 C4OC    32.1362  11.5636  13.2260   C.2       1 RES1   0.0000
   834 C4TA    30.1786  13.2260  13.5212   C.2       1 RES1   0.0000
   835 C5IC    23.5845  26.7773   4.3347   C.2       1 RES1   0.0000
   836 C5JB    22.9497  23.5845   8.1623   C.2       1 RES1   0.0000
   837 C5R     32.2605  14.2803  10.4527   C.2       1 RES1   0.0000
   838 C5OC    32.8953  10.4527  13.6455   C.2       1 RES1   0.0000
   839 C5TA    29.0677  13.6455  14.2803   C.2       1 RES1   0.0000
   840 H3JB    23.1720  22.7848   8.6225   H         1 RES1   0.0000
   841 H3IC    22.7848  27.2375   4.5570   H         1 RES1   0.0000
   842 H3R     33.0602  14.0580   9.9925   H         1 RES1   0.0000
   843 H3TA    28.6075  14.4452  14.0580   H         1 RES1   0.0000
   844 H3OC    32.6730   9.9925  14.4452   H         1 RES1   0.0000
   845 C6IC    24.3588  27.1928   3.2524   C.2       1 RES1   0.0000
   846 C6JB    21.8674  24.3588   8.5778   C.2       1 RES1   0.0000
   847 C6R     31.4862  15.3626  10.0372   C.2       1 RES1   0.0000
   848 C6OC    33.9776  10.0372  12.8712   C.2       1 RES1   0.0000
   849 C6TA    28.6522  12.8712  15.3626   C.2       1 RES1   0.0000
   850 H4JB    21.3551  24.0841   9.3298   H         1 RES1   0.0000
   851 H4IC    24.0841  27.9448   2.7401   H         1 RES1   0.0000
   852 H4R     31.7609  15.8749   9.2852   H         1 RES1   0.0000
   853 H4TA    27.9002  13.1459  15.8749   H         1 RES1   0.0000
   854 H4OC    34.4899   9.2852  13.1459   H         1 RES1   0.0000
   855 C7IC    26.3365  26.9769   1.7721   C.2       1 RES1   0.0000
   856 C7JB    20.3871  26.3365   8.3619   C.2       1 RES1   0.0000
   857 C7R     29.5085  16.8429  10.2531   C.2       1 RES1   0.0000
   858 C7OC    35.4579  10.2531  10.8935   C.2       1 RES1   0.0000
   859 C7TA    28.8681  10.8935  16.8429   C.2       1 RES1   0.0000
   860 Cu1IC   27.0216  28.8234  37.2300   Cu        1 RES1   0.0000
   861 Cu1CB   28.8234  27.0216  37.2300   Cu        1 RES1   0.0000
   862 O1PC    27.8142  29.9657  35.8853   O.co2     1 RES1   0.0000
   863 O2CB    26.3685  27.3588  35.7203   O.co2     1 RES1   0.0000
   864 O3IC    25.4653  30.3797  37.2300   O.3       1 RES1   0.0000
   865 H2PC    25.5435  31.1317  36.6529   H         1 RES1   0.0000
   866 O1PC     7.2643   1.3447  27.8142   O.co2     1 RES1   0.0000
   867 O3IC     6.8503   0.0000  25.4653   O.3       1 RES1   0.0000
   868 H2PC     6.0983   0.5771  25.5435   H         1 RES1   0.0000
   869 O1      17.2703  29.9657  28.0308   O.co2     1 RES1   0.0000
   870 C1      15.7018  30.3101  26.5152   C.2       1 RES1   0.0000
   871 O2      17.1053  28.4862  26.3685   O.co2     1 RES1   0.0000
   872 C2      14.9676  29.9143  25.4024   C.2       1 RES1   0.0000
   873 H1      15.2159  29.1288  24.9255   H         1 RES1   0.0000
   874 O3      18.6150  30.3797  30.3797   O.3       1 RES1   0.0000
   875 H2      18.0379  31.1317  30.3015   H         1 RES1   0.0000
   876 C3      13.8756  30.6556  24.9858   C.2       1 RES1   0.0000
   877 C4      13.5212  31.8410  25.6664   C.2       1 RES1   0.0000
   878 C5      14.2803  32.2605  26.7773   C.2       1 RES1   0.0000
   879 H3      14.0580  33.0602  27.2375   H         1 RES1   0.0000
   880 C6      15.3626  31.4862  27.1928   C.2       1 RES1   0.0000
   881 H4      15.8749  31.7609  27.9448   H         1 RES1   0.0000
   882 C7      16.8429  29.5085  26.9769   C.2       1 RES1   0.0000
   883 O1IC     9.1992  35.8853  25.8793   O.co2     1 RES1   0.0000
   884 O1R     19.9597  28.0308  29.9657   O.co2     1 RES1   0.0000
   885 O1OC    28.0308  25.8793  35.8853   O.co2     1 RES1   0.0000
   886 C1IC    10.7148  34.3168  25.5349   C.2       1 RES1   0.0000
   887 C1JB    11.6951  29.3298  21.5282   C.2       1 RES1   0.0000
   888 C1R     21.5282  26.5152  30.3101   C.2       1 RES1   0.0000
   889 C1OC    26.5152  25.5349  34.3168   C.2       1 RES1   0.0000
   890 C1TA    25.5349  21.5282  29.3298   C.2       1 RES1   0.0000
   891 O2IC    10.8615  35.7203  27.3588   O.co2     1 RES1   0.0000
   892 O2R     20.1247  26.3685  28.4862   O.co2     1 RES1   0.0000
   893 O2TA    27.3588  20.1247  29.4765   O.co2     1 RES1   0.0000
   894 O2LB     7.7535  35.7203  28.4862   O.co2     1 RES1   0.0000
   895 C2IC    11.8276  33.5826  25.9307   C.2       1 RES1   0.0000
   896 C2JB    11.2993  30.4426  22.2624   C.2       1 RES1   0.0000
   897 C2R     22.2624  25.4024  29.9143   C.2       1 RES1   0.0000
   898 C2OC    25.4024  25.9307  33.5826   C.2       1 RES1   0.0000
   899 C2TA    25.9307  22.2624  30.4426   C.2       1 RES1   0.0000
   900 H1JB    10.5138  30.9195  22.0141   H         1 RES1   0.0000
   901 H1IC    12.3045  33.8309  26.7162   H         1 RES1   0.0000
   902 H1R     22.0141  24.9255  29.1288   H         1 RES1   0.0000
   903 H1TA    26.7162  22.0141  30.9195   H         1 RES1   0.0000
   904 H1OC    24.9255  26.7162  33.8309   H         1 RES1   0.0000
   905 O3IC     6.8503  37.2300  25.4653   O.3       1 RES1   0.0000
   906 H2R     19.1921  30.3015  31.1317   H         1 RES1   0.0000
   907 H2IC     6.9285  36.6529  24.7133   H         1 RES1   0.0000
   908 C3IC    12.2442  32.4906  25.1894   C.2       1 RES1   0.0000
   909 C3JB    12.0406  30.8592  23.3544   C.2       1 RES1   0.0000
   910 C3R     23.3544  24.9858  30.6556   C.2       1 RES1   0.0000
   911 C3OC    24.9858  25.1894  32.4906   C.2       1 RES1   0.0000
   912 C3TA    25.1894  23.3544  30.8592   C.2       1 RES1   0.0000
   913 C4IC    11.5636  32.1362  24.0040   C.2       1 RES1   0.0000
   914 C4JB    13.2260  30.1786  23.7088   C.2       1 RES1   0.0000
   915 C4R     23.7088  25.6664  31.8410   C.2       1 RES1   0.0000
   916 C4OC    25.6664  24.0040  32.1362   C.2       1 RES1   0.0000
   917 C4TA    24.0040  23.7088  30.1786   C.2       1 RES1   0.0000
   918 C5IC    10.4527  32.8953  23.5845   C.2       1 RES1   0.0000
   919 C5JB    13.6455  29.0677  22.9497   C.2       1 RES1   0.0000
   920 C5R     22.9497  26.7773  32.2605   C.2       1 RES1   0.0000
   921 C5OC    26.7773  23.5845  32.8953   C.2       1 RES1   0.0000
   922 C5TA    23.5845  22.9497  29.0677   C.2       1 RES1   0.0000
   923 H3JB    14.4452  28.6075  23.1720   H         1 RES1   0.0000
   924 H3IC     9.9925  32.6730  22.7848   H         1 RES1   0.0000
   925 H3R     23.1720  27.2375  33.0602   H         1 RES1   0.0000
   926 H3TA    22.7848  23.1720  28.6075   H         1 RES1   0.0000
   927 H3OC    27.2375  22.7848  32.6730   H         1 RES1   0.0000
   928 C6IC    10.0372  33.9776  24.3588   C.2       1 RES1   0.0000
   929 C6JB    12.8712  28.6522  21.8674   C.2       1 RES1   0.0000
   930 C6R     21.8674  27.1928  31.4862   C.2       1 RES1   0.0000
   931 C6OC    27.1928  24.3588  33.9776   C.2       1 RES1   0.0000
   932 C6TA    24.3588  21.8674  28.6522   C.2       1 RES1   0.0000
   933 H4JB    13.1459  27.9002  21.3551   H         1 RES1   0.0000
   934 H4IC     9.2852  34.4899  24.0841   H         1 RES1   0.0000
   935 H4R     21.3551  27.9448  31.7609   H         1 RES1   0.0000
   936 H4TA    24.0841  21.3551  27.9002   H         1 RES1   0.0000
   937 H4OC    27.9448  24.0841  34.4899   H         1 RES1   0.0000
   938 C7IC    10.2531  35.4579  26.3365   C.2       1 RES1   0.0000
   939 C7JB    10.8935  28.8681  20.3871   C.2       1 RES1   0.0000
   940 C7R     20.3871  26.9769  29.5085   C.2       1 RES1   0.0000
   941 C7OC    26.9769  26.3365  35.4579   C.2       1 RES1   0.0000
   942 C7TA    26.3365  20.3871  28.8681   C.2       1 RES1   0.0000
   943 O1PC    27.8142   7.2643   1.3447   O.co2     1 RES1   0.0000
   944 O3IC    25.4653   6.8503   0.0000   O.3       1 RES1   0.0000
   945 H2PC    25.5435   6.0983   0.5771   H         1 RES1   0.0000
   946 O1      28.0308  17.2703  29.9657   O.co2     1 RES1   0.0000
   947 C1      26.5152  15.7018  30.3101   C.2       1 RES1   0.0000
   948 C2      25.4024  14.9676  29.9143   C.2       1 RES1   0.0000
   949 H1      24.9255  15.2159  29.1288   H         1 RES1   0.0000
   950 O3      30.3797  18.6150  30.3797   O.3       1 RES1   0.0000
   951 H2      30.3015  18.0379  31.1317   H         1 RES1   0.0000
   952 C3      24.9858  13.8756  30.6556   C.2       1 RES1   0.0000
   953 C4      25.6664  13.5212  31.8410   C.2       1 RES1   0.0000
   954 C5      26.7773  14.2803  32.2605   C.2       1 RES1   0.0000
   955 H3      27.2375  14.0580  33.0602   H         1 RES1   0.0000
   956 C6      27.1928  15.3626  31.4862   C.2       1 RES1   0.0000
   957 H4      27.9448  15.8749  31.7609   H         1 RES1   0.0000
   958 C7      26.9769  16.8429  29.5085   C.2       1 RES1   0.0000
   959 O1IC    25.8793   9.1992  35.8853   O.co2     1 RES1   0.0000
   960 O1JB    19.9597  11.3507  27.8142   O.co2     1 RES1   0.0000
   961 O1R     29.9657  19.9597  28.0308   O.co2     1 RES1   0.0000
   962 O1OC    35.8853  28.0308  25.8793   O.co2     1 RES1   0.0000
   963 O1TA    27.8142  25.8793  19.9597   O.co2     1 RES1   0.0000
   964 C1IC    25.5349  10.7148  34.3168   C.2       1 RES1   0.0000
   965 C1JB    21.5282  11.6951  29.3298   C.2       1 RES1   0.0000
   966 C1R     30.3101  21.5282  26.5152   C.2       1 RES1   0.0000
   967 C1OC    34.3168  26.5152  25.5349   C.2       1 RES1   0.0000
   968 C1TA    29.3298  25.5349  21.5282   C.2       1 RES1   0.0000
   969 O2LB    28.4862   7.7535  35.7203   O.co2     1 RES1   0.0000
   970 C2IC    25.9307  11.8276  33.5826   C.2       1 RES1   0.0000
   971 C2JB    22.2624  11.2993  30.4426   C.2       1 RES1   0.0000
   972 C2R     29.9143  22.2624  25.4024   C.2       1 RES1   0.0000
   973 C2OC    33.5826  25.4024  25.9307   C.2       1 RES1   0.0000
   974 C2TA    30.4426  25.9307  22.2624   C.2       1 RES1   0.0000
   975 H1JB    22.0141  10.5138  30.9195   H         1 RES1   0.0000
   976 H1IC    26.7162  12.3045  33.8309   H         1 RES1   0.0000
   977 H1R     29.1288  22.0141  24.9255   H         1 RES1   0.0000
   978 H1TA    30.9195  26.7162  22.0141   H         1 RES1   0.0000
   979 H1OC    33.8309  24.9255  26.7162   H         1 RES1   0.0000
   980 O3IC    25.4653   6.8503  37.2300   O.3       1 RES1   0.0000
   981 O3JB    18.6150  11.7647  25.4653   O.3       1 RES1   0.0000
   982 H2R     31.1317  19.1921  30.3015   H         1 RES1   0.0000
   983 H2IC    24.7133   6.9285  36.6529   H         1 RES1   0.0000
   984 H2JB    19.1921  12.5167  25.5435   H         1 RES1   0.0000
   985 H2QB    18.0379  11.6865  24.7133   H         1 RES1   0.0000
   986 C3IC    25.1894  12.2442  32.4906   C.2       1 RES1   0.0000
   987 C3JB    23.3544  12.0406  30.8592   C.2       1 RES1   0.0000
   988 C3R     30.6556  23.3544  24.9858   C.2       1 RES1   0.0000
   989 C3OC    32.4906  24.9858  25.1894   C.2       1 RES1   0.0000
   990 C3TA    30.8592  25.1894  23.3544   C.2       1 RES1   0.0000
   991 C4IC    24.0040  11.5636  32.1362   C.2       1 RES1   0.0000
   992 C4JB    23.7088  13.2260  30.1786   C.2       1 RES1   0.0000
   993 C4R     31.8410  23.7088  25.6664   C.2       1 RES1   0.0000
   994 C4OC    32.1362  25.6664  24.0040   C.2       1 RES1   0.0000
   995 C4TA    30.1786  24.0040  23.7088   C.2       1 RES1   0.0000
   996 C5IC    23.5845  10.4527  32.8953   C.2       1 RES1   0.0000
   997 C5JB    22.9497  13.6455  29.0677   C.2       1 RES1   0.0000
   998 C5R     32.2605  22.9497  26.7773   C.2       1 RES1   0.0000
   999 C5OC    32.8953  26.7773  23.5845   C.2       1 RES1   0.0000
  1000 C5TA    29.0677  23.5845  22.9497   C.2       1 RES1   0.0000
  1001 H3JB    23.1720  14.4452  28.6075   H         1 RES1   0.0000
  1002 H3IC    22.7848   9.9925  32.6730   H         1 RES1   0.0000
  1003 H3R     33.0602  23.1720  27.2375   H         1 RES1   0.0000
  1004 H3TA    28.6075  22.7848  23.1720   H         1 RES1   0.0000
  1005 H3OC    32.6730  27.2375  22.7848   H         1 RES1   0.0000
  1006 C6IC    24.3588  10.0372  33.9776   C.2       1 RES1   0.0000
  1007 C6JB    21.8674  12.8712  28.6522   C.2       1 RES1   0.0000
  1008 C6R     31.4862  21.8674  27.1928   C.2       1 RES1   0.0000
  1009 C6OC    33.9776  27.1928  24.3588   C.2       1 RES1   0.0000
  1010 C6TA    28.6522  24.3588  21.8674   C.2       1 RES1   0.0000
  1011 H4JB    21.3551  13.1459  27.9002   H         1 RES1   0.0000
  1012 H4IC    24.0841   9.2852  34.4899   H         1 RES1   0.0000
  1013 H4R     31.7609  21.3551  27.9448   H         1 RES1   0.0000
  1014 H4TA    27.9002  24.0841  21.3551   H         1 RES1   0.0000
  1015 H4OC    34.4899  27.9448  24.0841   H         1 RES1   0.0000
  1016 C7IC    26.3365  10.2531  35.4579   C.2       1 RES1   0.0000
  1017 C7JB    20.3871  10.8935  28.8681   C.2       1 RES1   0.0000
  1018 C7R     29.5085  20.3871  26.9769   C.2       1 RES1   0.0000
  1019 C7OC    35.4579  26.9769  26.3365   C.2       1 RES1   0.0000
  1020 C7TA    28.8681  26.3365  20.3871   C.2       1 RES1   0.0000
  1021 O1PC    29.9657   1.3447   9.4158   O.co2     1 RES1   0.0000
  1022 O3IC    30.3797   0.0000  11.7647   O.3       1 RES1   0.0000
  1023 H2PC    31.1317   0.5771  11.6865   H         1 RES1   0.0000
  1024 O1      19.9597  29.9657   9.1992   O.co2     1 RES1   0.0000
  1025 C1      21.5282  30.3101  10.7148   C.2       1 RES1   0.0000
  1026 C2      22.2624  29.9143  11.8276   C.2       1 RES1   0.0000
  1027 H1      22.0141  29.1288  12.3045   H         1 RES1   0.0000
  1028 O3      18.6150  30.3797   6.8503   O.3       1 RES1   0.0000
  1029 H2      19.1921  31.1317   6.9285   H         1 RES1   0.0000
  1030 C3      23.3544  30.6556  12.2442   C.2       1 RES1   0.0000
  1031 C4      23.7088  31.8410  11.5636   C.2       1 RES1   0.0000
  1032 C5      22.9497  32.2605  10.4527   C.2       1 RES1   0.0000
  1033 H3      23.1720  33.0602   9.9925   H         1 RES1   0.0000
  1034 C6      21.8674  31.4862  10.0372   C.2       1 RES1   0.0000
  1035 H4      21.3551  31.7609   9.2852   H         1 RES1   0.0000
  1036 C7      20.3871  29.5085  10.2531   C.2       1 RES1   0.0000
  1037 O1IC    28.0308  35.8853  11.3507   O.co2     1 RES1   0.0000
  1038 O1JB    25.8793  27.8142  17.2703   O.co2     1 RES1   0.0000
  1039 O1R     17.2703  28.0308   7.2643   O.co2     1 RES1   0.0000
  1040 O1OC     9.1992  25.8793   1.3447   O.co2     1 RES1   0.0000
  1041 C1IC    26.5152  34.3168  11.6951   C.2       1 RES1   0.0000
  1042 C1JB    25.5349  29.3298  15.7018   C.2       1 RES1   0.0000
  1043 C1R     15.7018  26.5152   6.9199   C.2       1 RES1   0.0000
  1044 C1OC    10.7148  25.5349   2.9132   C.2       1 RES1   0.0000
  1045 C1TA    11.6951  21.5282   7.9002   C.2       1 RES1   0.0000
  1046 O2OC    10.8615  27.3588   1.5097   O.co2     1 RES1   0.0000
  1047 O2LB    29.4765  35.7203   8.7438   O.co2     1 RES1   0.0000
  1048 C2IC    25.4024  33.5826  11.2993   C.2       1 RES1   0.0000
  1049 C2JB    25.9307  30.4426  14.9676   C.2       1 RES1   0.0000
  1050 C2R     14.9676  25.4024   7.3157   C.2       1 RES1   0.0000
  1051 C2OC    11.8276  25.9307   3.6474   C.2       1 RES1   0.0000
  1052 C2TA    11.2993  22.2624   6.7874   C.2       1 RES1   0.0000
  1053 H1JB    26.7162  30.9195  15.2159   H         1 RES1   0.0000
  1054 H1IC    24.9255  33.8309  10.5138   H         1 RES1   0.0000
  1055 H1R     15.2159  24.9255   8.1012   H         1 RES1   0.0000
  1056 H1TA    10.5138  22.0141   6.3105   H         1 RES1   0.0000
  1057 H1OC    12.3045  26.7162   3.3991   H         1 RES1   0.0000
  1058 O3IC    30.3797  37.2300  11.7647   O.3       1 RES1   0.0000
  1059 O3JB    25.4653  25.4653  18.6150   O.3       1 RES1   0.0000
  1060 H2R     18.0379  30.3015   6.0983   H         1 RES1   0.0000
  1061 H2IC    30.3015  36.6529  12.5167   H         1 RES1   0.0000
  1062 H2JB    24.7133  25.5435  18.0379   H         1 RES1   0.0000
  1063 H2QB    25.5435  24.7133  19.1921   H         1 RES1   0.0000
  1064 C3IC    24.9858  32.4906  12.0406   C.2       1 RES1   0.0000
  1065 C3JB    25.1894  30.8592  13.8756   C.2       1 RES1   0.0000
  1066 C3R     13.8756  24.9858   6.5744   C.2       1 RES1   0.0000
  1067 C3OC    12.2442  25.1894   4.7394   C.2       1 RES1   0.0000
  1068 C3TA    12.0406  23.3544   6.3708   C.2       1 RES1   0.0000
  1069 C4IC    25.6664  32.1362  13.2260   C.2       1 RES1   0.0000
  1070 C4JB    24.0040  30.1786  13.5212   C.2       1 RES1   0.0000
  1071 C4R     13.5212  25.6664   5.3890   C.2       1 RES1   0.0000
  1072 C4OC    11.5636  24.0040   5.0938   C.2       1 RES1   0.0000
  1073 C4TA    13.2260  23.7088   7.0514   C.2       1 RES1   0.0000
  1074 C5IC    26.7773  32.8953  13.6455   C.2       1 RES1   0.0000
  1075 C5JB    23.5845  29.0677  14.2803   C.2       1 RES1   0.0000
  1076 C5R     14.2803  26.7773   4.9695   C.2       1 RES1   0.0000
  1077 C5OC    10.4527  23.5845   4.3347   C.2       1 RES1   0.0000
  1078 C5TA    13.6455  22.9497   8.1623   C.2       1 RES1   0.0000
  1079 H3JB    22.7848  28.6075  14.0580   H         1 RES1   0.0000
  1080 H3IC    27.2375  32.6730  14.4452   H         1 RES1   0.0000
  1081 H3R     14.0580  27.2375   4.1698   H         1 RES1   0.0000
  1082 H3TA    14.4452  23.1720   8.6225   H         1 RES1   0.0000
  1083 H3OC     9.9925  22.7848   4.5570   H         1 RES1   0.0000
  1084 C6IC    27.1928  33.9776  12.8712   C.2       1 RES1   0.0000
  1085 C6JB    24.3588  28.6522  15.3626   C.2       1 RES1   0.0000
  1086 C6R     15.3626  27.1928   5.7438   C.2       1 RES1   0.0000
  1087 C6OC    10.0372  24.3588   3.2524   C.2       1 RES1   0.0000
  1088 C6TA    12.8712  21.8674   8.5778   C.2       1 RES1   0.0000
  1089 H4JB    24.0841  27.9002  15.8749   H         1 RES1   0.0000
  1090 H4IC    27.9448  34.4899  13.1459   H         1 RES1   0.0000
  1091 H4R     15.8749  27.9448   5.4691   H         1 RES1   0.0000
  1092 H4TA    13.1459  21.3551   9.3298   H         1 RES1   0.0000
  1093 H4OC     9.2852  24.0841   2.7401   H         1 RES1   0.0000
  1094 C7IC    26.9769  35.4579  10.8935   C.2       1 RES1   0.0000
  1095 C7JB    26.3365  28.8681  16.8429   C.2       1 RES1   0.0000
  1096 C7R     16.8429  26.9769   7.7215   C.2       1 RES1   0.0000
  1097 C7OC    10.2531  26.3365   1.7721   C.2       1 RES1   0.0000
  1098 C7TA    10.8935  20.3871   8.3619   C.2       1 RES1   0.0000
  1099 O2LB    29.4765   1.5097  28.4862   O.co2     1 RES1   0.0000
  1100 O3IC    30.3797   0.0000  25.4653   O.3       1 RES1   0.0000
  1101 O3JB    25.4653  11.7647  18.6150   O.3       1 RES1   0.0000
  1102 H2IC    30.3015   0.5771  24.7133   H         1 RES1   0.0000
  1103 H2JB    24.7133  11.6865  19.1921   H         1 RES1   0.0000
  1104 H2QB    25.5435  12.5167  18.0379   H         1 RES1   0.0000
  1105 O1PC    29.9657  35.8853  27.8142   O.co2     1 RES1   0.0000
  1106 O3IC    30.3797  37.2300  25.4653   O.3       1 RES1   0.0000
  1107 H2PC    31.1317  36.6529  25.5435   H         1 RES1   0.0000
  1108 O1PC     9.4158  29.9657   1.3447   O.co2     1 RES1   0.0000
  1109 O3IC    11.7647  30.3797   0.0000   O.3       1 RES1   0.0000
  1110 H2PC    11.6865  31.1317   0.5771   H         1 RES1   0.0000
  1111 O2LB     8.7438  29.4765  35.7203   O.co2     1 RES1   0.0000
  1112 O3IC    11.7647  30.3797  37.2300   O.3       1 RES1   0.0000
  1113 O3JB    18.6150  25.4653  25.4653   O.3       1 RES1   0.0000
  1114 H2IC    12.5167  30.3015  36.6529   H         1 RES1   0.0000
  1115 H2JB    18.0379  24.7133  25.5435   H         1 RES1   0.0000
  1116 H2QB    19.1921  25.5435  24.7133   H         1 RES1   0.0000
  1117 O2LB     8.7438   1.5097  29.4765   O.co2     1 RES1   0.0000
  1118 O3IC    11.7647   0.0000  30.3797   O.3       1 RES1   0.0000
  1119 H2IC    12.5167   0.5771  30.3015   H         1 RES1   0.0000
  1120 O1PC     9.4158  35.8853  29.9657   O.co2     1 RES1   0.0000
  1121 O3IC    11.7647  37.2300  30.3797   O.3       1 RES1   0.0000
  1122 H2PC    11.6865  36.6529  31.1317   H         1 RES1   0.0000
  1123 O1PC    27.8142   1.3447  29.9657   O.co2     1 RES1   0.0000
  1124 O3IC    25.4653   0.0000  30.3797   O.3       1 RES1   0.0000
  1125 H2PC    25.5435   0.5771  31.1317   H         1 RES1   0.0000
  1126 O2LB    28.4862  35.7203  29.4765   O.co2     1 RES1   0.0000
  1127 O3IC    25.4653  37.2300  30.3797   O.3       1 RES1   0.0000
  1128 H2IC    24.7133  36.6529  30.3015   H         1 RES1   0.0000
  1129 O1PC     1.3447   7.2643   9.4158   O.co2     1 RES1   0.0000
  1130 O3IC     0.0000   6.8503  11.7647   O.3       1 RES1   0.0000
  1131 H2PC     0.5771   6.0983  11.6865   H         1 RES1   0.0000
  1132 O2LB    35.7203   7.7535   8.7438   O.co2     1 RES1   0.0000
  1133 O3IC    37.2300   6.8503  11.7647   O.3       1 RES1   0.0000
  1134 H2IC    36.6529   6.9285  12.5167   H         1 RES1   0.0000
  1135 O1PC     1.3447  29.9657  27.8142   O.co2     1 RES1   0.0000
  1136 O3IC     0.0000  30.3797  25.4653   O.3       1 RES1   0.0000
  1137 H2PC     0.5771  31.1317  25.5435   H         1 RES1   0.0000
  1138 O2LB    35.7203  29.4765  28.4862   O.co2     1 RES1   0.0000
  1139 O3IC    37.2300  30.3797  25.4653   O.3       1 RES1   0.0000
  1140 H2IC    36.6529  30.3015  24.7133   H         1 RES1   0.0000
  1141 O2LB     7.7535  28.4862   1.5097   O.co2     1 RES1   0.0000
  1142 O3IC     6.8503  25.4653   0.0000   O.3       1 RES1   0.0000
  1143 H2IC     6.9285  24.7133   0.5771   H         1 RES1   0.0000
  1144 O1PC     7.2643  27.8142  35.8853   O.co2     1 RES1   0.0000
  1145 O3IC     6.8503  25.4653  37.2300   O.3       1 RES1   0.0000
  1146 H2PC     6.0983  25.5435  36.6529   H         1 RES1   0.0000
  1147 O1PC    29.9657  27.8142   1.3447   O.co2     1 RES1   0.0000
  1148 O3IC    30.3797  25.4653   0.0000   O.3       1 RES1   0.0000
  1149 H2PC    31.1317  25.5435   0.5771   H         1 RES1   0.0000
  1150 O2LB    29.4765  28.4862  35.7203   O.co2     1 RES1   0.0000
  1151 O3IC    30.3797  25.4653  37.2300   O.3       1 RES1   0.0000
  1152 H2IC    30.3015  24.7133  36.6529   H         1 RES1   0.0000
  1153 C1       6.9199  29.3298  34.3168   C.2       1 RES1   0.0000
  1154 C2       7.3157  30.4426  33.5826   C.2       1 RES1   0.0000
  1155 H1       8.1012  30.9195  33.8309   H         1 RES1   0.0000
  1156 C3       6.5744  30.8592  32.4906   C.2       1 RES1   0.0000
  1157 C4       5.3890  30.1786  32.1362   C.2       1 RES1   0.0000
  1158 C5       4.9695  29.0677  32.8953   C.2       1 RES1   0.0000
  1159 H3       4.1698  28.6075  32.6730   H         1 RES1   0.0000
  1160 C6       5.7438  28.6522  33.9776   C.2       1 RES1   0.0000
  1161 H4       5.4691  27.9002  34.4899   H         1 RES1   0.0000
  1162 C7       7.7215  28.8681  35.4579   C.2       1 RES1   0.0000
  1163 C1IC     2.9132  30.3101  29.3298   C.2       1 RES1   0.0000
  1164 C1JB     7.9002  34.3168  30.3101   C.2       1 RES1   0.0000
  1165 C2IC     3.6474  29.9143  30.4426   C.2       1 RES1   0.0000
  1166 C2JB     6.7874  33.5826  29.9143   C.2       1 RES1   0.0000
  1167 H1JB     6.3105  33.8309  29.1288   H         1 RES1   0.0000
  1168 H1IC     3.3991  29.1288  30.9195   H         1 RES1   0.0000
  1169 C3IC     4.7394  30.6556  30.8592   C.2       1 RES1   0.0000
  1170 C3JB     6.3708  32.4906  30.6556   C.2       1 RES1   0.0000
  1171 C4IC     5.0938  31.8410  30.1786   C.2       1 RES1   0.0000
  1172 C4JB     7.0514  32.1362  31.8410   C.2       1 RES1   0.0000
  1173 C5IC     4.3347  32.2605  29.0677   C.2       1 RES1   0.0000
  1174 C5JB     8.1623  32.8953  32.2605   C.2       1 RES1   0.0000
  1175 H3JB     8.6225  32.6730  33.0602   H         1 RES1   0.0000
  1176 H3IC     4.5570  33.0602  28.6075   H         1 RES1   0.0000
  1177 C6IC     3.2524  31.4862  28.6522   C.2       1 RES1   0.0000
  1178 C6JB     8.5778  33.9776  31.4862   C.2       1 RES1   0.0000
  1179 H4JB     9.3298  34.4899  31.7609   H         1 RES1   0.0000
  1180 H4IC     2.7401  31.7609  27.9002   H         1 RES1   0.0000
  1181 C7IC     1.7721  29.5085  28.8681   C.2       1 RES1   0.0000
  1182 C7JB     8.3619  35.4579  29.5085   C.2       1 RES1   0.0000
  1183 C1R     30.3101  29.3298   2.9132   C.2       1 RES1   0.0000
  1184 C1OC    34.3168  30.3101   7.9002   C.2       1 RES1   0.0000
  1185 C1TA    29.3298  34.3168   6.9199   C.2       1 RES1   0.0000
  1186 C2R     29.9143  30.4426   3.6474   C.2       1 RES1   0.0000
  1187 C2OC    33.5826  29.9143   6.7874   C.2       1 RES1   0.0000
  1188 C2TA    30.4426  33.5826   7.3157   C.2       1 RES1   0.0000
  1189 H1R     29.1288  30.9195   3.3991   H         1 RES1   0.0000
  1190 H1TA    30.9195  33.8309   8.1012   H         1 RES1   0.0000
  1191 H1OC    33.8309  29.1288   6.3105   H         1 RES1   0.0000
  1192 C3R     30.6556  30.8592   4.7394   C.2       1 RES1   0.0000
  1193 C3OC    32.4906  30.6556   6.3708   C.2       1 RES1   0.0000
  1194 C3TA    30.8592  32.4906   6.5744   C.2       1 RES1   0.0000
  1195 C4R     31.8410  30.1786   5.0938   C.2       1 RES1   0.0000
  1196 C4OC    32.1362  31.8410   7.0514   C.2       1 RES1   0.0000
  1197 C4TA    30.1786  32.1362   5.3890   C.2       1 RES1   0.0000
  1198 C5R     32.2605  29.0677   4.3347   C.2       1 RES1   0.0000
  1199 C5OC    32.8953  32.2605   8.1623   C.2       1 RES1   0.0000
  1200 C5TA    29.0677  32.8953   4.9695   C.2       1 RES1   0.0000
  1201 H3R     33.0602  28.6075   4.5570   H         1 RES1   0.0000
  1202 H3TA    28.6075  32.6730   4.1698   H         1 RES1   0.0000
  1203 H3OC    32.6730  33.0602   8.6225   H         1 RES1   0.0000
  1204 C6R     31.4862  28.6522   3.2524   C.2       1 RES1   0.0000
  1205 C6OC    33.9776  31.4862   8.5778   C.2       1 RES1   0.0000
  1206 C6TA    28.6522  33.9776   5.7438   C.2       1 RES1   0.0000
  1207 H4R     31.7609  27.9002   2.7401   H         1 RES1   0.0000
  1208 H4TA    27.9002  34.4899   5.4691   H         1 RES1   0.0000
  1209 H4OC    34.4899  31.7609   9.3298   H         1 RES1   0.0000
  1210 C7R     29.5085  28.8681   1.7721   C.2       1 RES1   0.0000
  1211 C7OC    35.4579  29.5085   8.3619   C.2       1 RES1   0.0000
  1212 C7TA    28.8681  35.4579   7.7215   C.2       1 RES1   0.0000
  1213 C1      30.3101   7.9002  34.3168   C.2       1 RES1   0.0000
  1214 C2      29.9143   6.7874  33.5826   C.2       1 RES1   0.0000
  1215 H1      29.1288   6.3105  33.8309   H         1 RES1   0.0000
  1216 C3      30.6556   6.3708  32.4906   C.2       1 RES1   0.0000
  1217 C4      31.8410   7.0514  32.1362   C.2       1 RES1   0.0000
  1218 C5      32.2605   8.1623  32.8953   C.2       1 RES1   0.0000
  1219 H3      33.0602   8.6225  32.6730   H         1 RES1   0.0000
  1220 C6      31.4862   8.5778  33.9776   C.2       1 RES1   0.0000
  1221 H4      31.7609   9.3298  34.4899   H         1 RES1   0.0000
  1222 C7      29.5085   8.3619  35.4579   C.2       1 RES1   0.0000
  1223 C1IC    34.3168   6.9199  29.3298   C.2       1 RES1   0.0000
  1224 C1JB    29.3298   2.9132  30.3101   C.2       1 RES1   0.0000
  1225 C2IC    33.5826   7.3157  30.4426   C.2       1 RES1   0.0000
  1226 C2JB    30.4426   3.6474  29.9143   C.2       1 RES1   0.0000
  1227 H1JB    30.9195   3.3991  29.1288   H         1 RES1   0.0000
  1228 H1IC    33.8309   8.1012  30.9195   H         1 RES1   0.0000
  1229 C3IC    32.4906   6.5744  30.8592   C.2       1 RES1   0.0000
  1230 C3JB    30.8592   4.7394  30.6556   C.2       1 RES1   0.0000
  1231 C4IC    32.1362   5.3890  30.1786   C.2       1 RES1   0.0000
  1232 C4JB    30.1786   5.0938  31.8410   C.2       1 RES1   0.0000
  1233 C5IC    32.8953   4.9695  29.0677   C.2       1 RES1   0.0000
  1234 C5JB    29.0677   4.3347  32.2605   C.2       1 RES1   0.0000
  1235 H3JB    28.6075   4.5570  33.0602   H         1 RES1   0.0000
  1236 H3IC    32.6730   4.1698  28.6075   H         1 RES1   0.0000
  1237 C6IC    33.9776   5.7438  28.6522   C.2       1 RES1   0.0000
  1238 C6JB    28.6522   3.2524  31.4862   C.2       1 RES1   0.0000
  1239 H4JB    27.9002   2.7401  31.7609   H         1 RES1   0.0000
  1240 H4IC    34.4899   5.4691  27.9002   H         1 RES1   0.0000
  1241 C7IC    35.4579   7.7215  28.8681   C.2       1 RES1   0.0000
  1242 C7JB    28.8681   1.7721  29.5085   C.2       1 RES1   0.0000
  1243 C1R      6.9199   7.9002   2.9132   C.2       1 RES1   0.0000
  1244 C1OC     2.9132   6.9199   7.9002   C.2       1 RES1   0.0000
  1245 C1TA     7.9002   2.9132   6.9199   C.2       1 RES1   0.0000
  1246 C2R      7.3157   6.7874   3.6474   C.2       1 RES1   0.0000
  1247 C2OC     3.6474   7.3157   6.7874   C.2       1 RES1   0.0000
  1248 C2TA     6.7874   3.6474   7.3157   C.2       1 RES1   0.0000
  1249 H1R      8.1012   6.3105   3.3991   H         1 RES1   0.0000
  1250 H1TA     6.3105   3.3991   8.1012   H         1 RES1   0.0000
  1251 H1OC     3.3991   8.1012   6.3105   H         1 RES1   0.0000
  1252 C3R      6.5744   6.3708   4.7394   C.2       1 RES1   0.0000
  1253 C3OC     4.7394   6.5744   6.3708   C.2       1 RES1   0.0000
  1254 C3TA     6.3708   4.7394   6.5744   C.2       1 RES1   0.0000
  1255 C4R      5.3890   7.0514   5.0938   C.2       1 RES1   0.0000
  1256 C4OC     5.0938   5.3890   7.0514   C.2       1 RES1   0.0000
  1257 C4TA     7.0514   5.0938   5.3890   C.2       1 RES1   0.0000
  1258 C5R      4.9695   8.1623   4.3347   C.2       1 RES1   0.0000
  1259 C5OC     4.3347   4.9695   8.1623   C.2       1 RES1   0.0000
  1260 C5TA     8.1623   4.3347   4.9695   C.2       1 RES1   0.0000
  1261 H3R      4.1698   8.6225   4.5570   H         1 RES1   0.0000
  1262 H3TA     8.6225   4.5570   4.1698   H         1 RES1   0.0000
  1263 H3OC     4.5570   4.1698   8.6225   H         1 RES1   0.0000
  1264 C6R      5.7438   8.5778   3.2524   C.2       1 RES1   0.0000
  1265 C6OC     3.2524   5.7438   8.5778   C.2       1 RES1   0.0000
  1266 C6TA     8.5778   3.2524   5.7438   C.2       1 RES1   0.0000
  1267 H4R      5.4691   9.3298   2.7401   H         1 RES1   0.0000
  1268 H4TA     9.3298   2.7401   5.4691   H         1 RES1   0.0000
  1269 H4OC     2.7401   5.4691   9.3298   H         1 RES1   0.0000
  1270 C7R      7.7215   8.3619   1.7721   C.2       1 RES1   0.0000
  1271 C7OC     1.7721   7.7215   8.3619   C.2       1 RES1   0.0000
  1272 C7TA     8.3619   1.7721   7.7215   C.2       1 RES1   0.0000
  1273 C1       6.9199   2.9132  29.3298   C.2       1 RES1   0.0000
  1274 C2       7.3157   3.6474  30.4426   C.2       1 RES1   0.0000
  1275 H1       8.1012   3.3991  30.9195   H         1 RES1   0.0000
  1276 C3       6.5744   4.7394  30.8592   C.2       1 RES1   0.0000
  1277 C4       5.3890   5.0938  30.1786   C.2       1 RES1   0.0000
  1278 C5       4.9695   4.3347  29.0677   C.2       1 RES1   0.0000
  1279 H3       4.1698   4.5570  28.6075   H         1 RES1   0.0000
  1280 C6       5.7438   3.2524  28.6522   C.2       1 RES1   0.0000
  1281 H4       5.4691   2.7401  27.9002   H         1 RES1   0.0000
  1282 C7       7.7215   1.7721  28.8681   C.2       1 RES1   0.0000
  1283 C1IC     2.9132   7.9002  30.3101   C.2       1 RES1   0.0000
  1284 C1JB     7.9002   6.9199  34.3168   C.2       1 RES1   0.0000
  1285 C2IC     3.6474   6.7874  29.9143   C.2       1 RES1   0.0000
  1286 C2JB     6.7874   7.3157  33.5826   C.2       1 RES1   0.0000
  1287 H1JB     6.3105   8.1012  33.8309   H         1 RES1   0.0000
  1288 H1IC     3.3991   6.3105  29.1288   H         1 RES1   0.0000
  1289 C3IC     4.7394   6.3708  30.6556   C.2       1 RES1   0.0000
  1290 C3JB     6.3708   6.5744  32.4906   C.2       1 RES1   0.0000
  1291 C4IC     5.0938   7.0514  31.8410   C.2       1 RES1   0.0000
  1292 C4JB     7.0514   5.3890  32.1362   C.2       1 RES1   0.0000
  1293 C5IC     4.3347   8.1623  32.2605   C.2       1 RES1   0.0000
  1294 C5JB     8.1623   4.9695  32.8953   C.2       1 RES1   0.0000
  1295 H3JB     8.6225   4.1698  32.6730   H         1 RES1   0.0000
  1296 H3IC     4.5570   8.6225  33.0602   H         1 RES1   0.0000
  1297 C6IC     3.2524   8.5778  31.4862   C.2       1 RES1   0.0000
  1298 C6JB     8.5778   5.7438  33.9776   C.2       1 RES1   0.0000
  1299 H4JB     9.3298   5.4691  34.4899   H         1 RES1   0.0000
  1300 H4IC     2.7401   9.3298  31.7609   H         1 RES1   0.0000
  1301 C7IC     1.7721   8.3619  29.5085   C.2       1 RES1   0.0000
  1302 C7JB     8.3619   7.7215  35.4579   C.2       1 RES1   0.0000
  1303 C1       6.9199  34.3168   7.9002   C.2       1 RES1   0.0000
  1304 C2       7.3157  33.5826   6.7874   C.2       1 RES1   0.0000
  1305 H1       8.1012  33.8309   6.3105   H         1 RES1   0.0000
  1306 C3       6.5744  32.4906   6.3708   C.2       1 RES1   0.0000
  1307 C4       5.3890  32.1362   7.0514   C.2       1 RES1   0.0000
  1308 C5       4.9695  32.8953   8.1623   C.2       1 RES1   0.0000
  1309 H3       4.1698  32.6730   8.6225   H         1 RES1   0.0000
  1310 C6       5.7438  33.9776   8.5778   C.2       1 RES1   0.0000
  1311 H4       5.4691  34.4899   9.3298   H         1 RES1   0.0000
  1312 C7       7.7215  35.4579   8.3619   C.2       1 RES1   0.0000
  1313 C1IC     2.9132  29.3298   6.9199   C.2       1 RES1   0.0000
  1314 C1JB     7.9002  30.3101   2.9132   C.2       1 RES1   0.0000
  1315 C2IC     3.6474  30.4426   7.3157   C.2       1 RES1   0.0000
  1316 C2JB     6.7874  29.9143   3.6474   C.2       1 RES1   0.0000
  1317 H1JB     6.3105  29.1288   3.3991   H         1 RES1   0.0000
  1318 H1IC     3.3991  30.9195   8.1012   H         1 RES1   0.0000
  1319 C3IC     4.7394  30.8592   6.5744   C.2       1 RES1   0.0000
  1320 C3JB     6.3708  30.6556   4.7394   C.2       1 RES1   0.0000
  1321 C4IC     5.0938  30.1786   5.3890   C.2       1 RES1   0.0000
  1322 C4JB     7.0514  31.8410   5.0938   C.2       1 RES1   0.0000
  1323 C5IC     4.3347  29.0677   4.9695   C.2       1 RES1   0.0000
  1324 C5JB     8.1623  32.2605   4.3347   C.2       1 RES1   0.0000
  1325 H3JB     8.6225  33.0602   4.5570   H         1 RES1   0.0000
  1326 H3IC     4.5570  28.6075   4.1698   H         1 RES1   0.0000
  1327 C6IC     3.2524  28.6522   5.7438   C.2       1 RES1   0.0000
  1328 C6JB     8.5778  31.4862   3.2524   C.2       1 RES1   0.0000
  1329 H4JB     9.3298  31.7609   2.7401   H         1 RES1   0.0000
  1330 H4IC     2.7401  27.9002   5.4691   H         1 RES1   0.0000
  1331 C7IC     1.7721  28.8681   7.7215   C.2       1 RES1   0.0000
  1332 C7JB     8.3619  29.5085   1.7721   C.2       1 RES1   0.0000
  1333 C1R     30.3101  34.3168  29.3298   C.2       1 RES1   0.0000
  1334 C1OC    34.3168  29.3298  30.3101   C.2       1 RES1   0.0000
  1335 C1TA    29.3298  30.3101  34.3168   C.2       1 RES1   0.0000
  1336 C2R     29.9143  33.5826  30.4426   C.2       1 RES1   0.0000
  1337 C2OC    33.5826  30.4426  29.9143   C.2       1 RES1   0.0000
  1338 C2TA    30.4426  29.9143  33.5826   C.2       1 RES1   0.0000
  1339 H1R     29.1288  33.8309  30.9195   H         1 RES1   0.0000
  1340 H1TA    30.9195  29.1288  33.8309   H         1 RES1   0.0000
  1341 H1OC    33.8309  30.9195  29.1288   H         1 RES1   0.0000
  1342 C3R     30.6556  32.4906  30.8592   C.2       1 RES1   0.0000
  1343 C3OC    32.4906  30.8592  30.6556   C.2       1 RES1   0.0000
  1344 C3TA    30.8592  30.6556  32.4906   C.2       1 RES1   0.0000
  1345 C4R     31.8410  32.1362  30.1786   C.2       1 RES1   0.0000
  1346 C4OC    32.1362  30.1786  31.8410   C.2       1 RES1   0.0000
  1347 C4TA    30.1786  31.8410  32.1362   C.2       1 RES1   0.0000
  1348 C5R     32.2605  32.8953  29.0677   C.2       1 RES1   0.0000
  1349 C5OC    32.8953  29.0677  32.2605   C.2       1 RES1   0.0000
  1350 C5TA    29.0677  32.2605  32.8953   C.2       1 RES1   0.0000
  1351 H3R     33.0602  32.6730  28.6075   H         1 RES1   0.0000
  1352 H3TA    28.6075  33.0602  32.6730   H         1 RES1   0.0000
  1353 H3OC    32.6730  28.6075  33.0602   H         1 RES1   0.0000
  1354 C6R     31.4862  33.9776  28.6522   C.2       1 RES1   0.0000
  1355 C6OC    33.9776  28.6522  31.4862   C.2       1 RES1   0.0000
  1356 C6TA    28.6522  31.4862  33.9776   C.2       1 RES1   0.0000
  1357 H4R     31.7609  34.4899  27.9002   H         1 RES1   0.0000
  1358 H4TA    27.9002  31.7609  34.4899   H         1 RES1   0.0000
  1359 H4OC    34.4899  27.9002  31.7609   H         1 RES1   0.0000
  1360 C7R     29.5085  35.4579  28.8681   C.2       1 RES1   0.0000
  1361 C7OC    35.4579  28.8681  29.5085   C.2       1 RES1   0.0000
  1362 C7TA    28.8681  29.5085  35.4579   C.2       1 RES1   0.0000
  1363 C1R     30.3101   2.9132   7.9002   C.2       1 RES1   0.0000
  1364 C1OC    34.3168   7.9002   6.9199   C.2       1 RES1   0.0000
  1365 C1TA    29.3298   6.9199   2.9132   C.2       1 RES1   0.0000
  1366 C2R     29.9143   3.6474   6.7874   C.2       1 RES1   0.0000
  1367 C2OC    33.5826   6.7874   7.3157   C.2       1 RES1   0.0000
  1368 C2TA    30.4426   7.3157   3.6474   C.2       1 RES1   0.0000
  1369 H1R     29.1288   3.3991   6.3105   H         1 RES1   0.0000
  1370 H1TA    30.9195   8.1012   3.3991   H         1 RES1   0.0000
  1371 H1OC    33.8309   6.3105   8.1012   H         1 RES1   0.0000
  1372 C3R     30.6556   4.7394   6.3708   C.2       1 RES1   0.0000
  1373 C3OC    32.4906   6.3708   6.5744   C.2       1 RES1   0.0000
  1374 C3TA    30.8592   6.5744   4.7394   C.2       1 RES1   0.0000
  1375 C4R     31.8410   5.0938   7.0514   C.2       1 RES1   0.0000
  1376 C4OC    32.1362   7.0514   5.3890   C.2       1 RES1   0.0000
  1377 C4TA    30.1786   5.3890   5.0938   C.2       1 RES1   0.0000
  1378 C5R     32.2605   4.3347   8.1623   C.2       1 RES1   0.0000
  1379 C5OC    32.8953   8.1623   4.9695   C.2       1 RES1   0.0000
  1380 C5TA    29.0677   4.9695   4.3347   C.2       1 RES1   0.0000
  1381 H3R     33.0602   4.5570   8.6225   H         1 RES1   0.0000
  1382 H3TA    28.6075   4.1698   4.5570   H         1 RES1   0.0000
  1383 H3OC    32.6730   8.6225   4.1698   H         1 RES1   0.0000
  1384 C6R     31.4862   3.2524   8.5778   C.2       1 RES1   0.0000
  1385 C6OC    33.9776   8.5778   5.7438   C.2       1 RES1   0.0000
  1386 C6TA    28.6522   5.7438   3.2524   C.2       1 RES1   0.0000
  1387 H4R     31.7609   2.7401   9.3298   H         1 RES1   0.0000
  1388 H4TA    27.9002   5.4691   2.7401   H         1 RES1   0.0000
  1389 H4OC    34.4899   9.3298   5.4691   H         1 RES1   0.0000
  1390 C7R     29.5085   1.7721   8.3619   C.2       1 RES1   0.0000
  1391 C7OC    35.4579   8.3619   7.7215   C.2       1 RES1   0.0000
  1392 C7TA    28.8681   7.7215   1.7721   C.2       1 RES1   0.0000
@<TRIPOS>BOND
     1     1     2   un
     2     1     7    1
     3     1    18   un
     4     1    27   un
     5     1    41   un
     6     1    42   un
     7     2    15   un
     8     3     5   un
     9     3    13   un
    10     3    15   un
    11     4    15   un
    12     4    18   un
    13     5     6    1
    14     5     9   un
    15     7     8    1
    16     7    58    1
    17     9    10   un
    18     9    68   un
    19    10    11   un
    20    10    62   un
    21    11    12    1
    22    11    13   un
    23    13    14    1
    24    16    19   un
    25    16    25   un
    26    16    43   un
    27    16    56    1
    28    17    20   un
    29    17    26   un
    30    17    30   un
    31    17    44   un
    32    17    45   un
    33    17    57    1
    34    18    38   un
    35    19    36   un
    36    20    37   un
    37    21    22   un
    38    21    28   un
    39    22    39   un
    40    23    24   un
    41    23    29   un
    42    24    40   un
    43    25    92   un
    44    26    93   un
    45    27    94   un
    46    28    95   un
    47    29    96   un
    48    31    46   un
    49    31    82   un
    50    31    92   un
    51    32    47   un
    52    32    83   un
    53    32    93   un
    54    33    48   un
    55    33    84   un
    56    33    94   un
    57    34    49   un
    58    34    85   un
    59    34    95   un
    60    35    50   un
    61    35    86   un
    62    35    96   un
    63    36    92   un
    64    37    93   un
    65    38    94   un
    66    39    95   un
    67    40    96   un
    68    46    52    1
    69    46    62   un
    70    47    51    1
    71    47    63   un
    72    48    53    1
    73    48    64   un
    74    49    55    1
    75    49    65   un
    76    50    54    1
    77    50    66   un
    78    56    59    1
    79    57    60    1
    80    57    61    1
    81    62    67   un
    82    63    67   un
    83    63    68   un
    84    64    69   un
    85    64    71   un
    86    65    69   un
    87    65    70   un
    88    66    70   un
    89    66    71   un
    90    67    72   un
    91    68    73   un
    92    69    74   un
    93    70    75   un
    94    71    76   un
    95    72    78    1
    96    72    82   un
    97    73    77    1
    98    73    83   un
    99    74    79    1
   100    74    84   un
   101    75    81    1
   102    75    85   un
   103    76    80    1
   104    76    86   un
   105    82    88    1
   106    83    87    1
   107    84    89    1
   108    85    91    1
   109    86    90    1
   110    97    98   un
   111    99   100   un
   112    99   101   un
   113    99   102   un
   114    99   103    1
   115   103   104    1
   116   105   106   un
   117   107   108   un
   118   107   113    1
   119   107   124   un
   120   107   133   un
   121   107   147   un
   122   107   148   un
   123   108   121   un
   124   109   111   un
   125   109   119   un
   126   109   121   un
   127   110   121   un
   128   110   124   un
   129   111   112    1
   130   111   115   un
   131   113   114    1
   132   113   164    1
   133   115   116   un
   134   115   174   un
   135   116   117   un
   136   116   168   un
   137   117   118    1
   138   117   119   un
   139   119   120    1
   140   122   125   un
   141   122   131   un
   142   122   149   un
   143   122   162    1
   144   123   126   un
   145   123   132   un
   146   123   136   un
   147   123   150   un
   148   123   151   un
   149   123   163    1
   150   124   144   un
   151   125   142   un
   152   126   143   un
   153   127   128   un
   154   127   134   un
   155   128   145   un
   156   129   130   un
   157   129   135   un
   158   130   146   un
   159   131   198   un
   160   132   199   un
   161   133   200   un
   162   134   201   un
   163   135   202   un
   164   137   152   un
   165   137   188   un
   166   137   198   un
   167   138   153   un
   168   138   189   un
   169   138   199   un
   170   139   154   un
   171   139   190   un
   172   139   200   un
   173   140   155   un
   174   140   191   un
   175   140   201   un
   176   141   156   un
   177   141   192   un
   178   141   202   un
   179   142   198   un
   180   143   199   un
   181   144   200   un
   182   145   201   un
   183   146   202   un
   184   152   158    1
   185   152   168   un
   186   153   157    1
   187   153   169   un
   188   154   159    1
   189   154   170   un
   190   155   161    1
   191   155   171   un
   192   156   160    1
   193   156   172   un
   194   162   165    1
   195   163   166    1
   196   163   167    1
   197   168   173   un
   198   169   173   un
   199   169   174   un
   200   170   175   un
   201   170   177   un
   202   171   175   un
   203   171   176   un
   204   172   176   un
   205   172   177   un
   206   173   178   un
   207   174   179   un
   208   175   180   un
   209   176   181   un
   210   177   182   un
   211   178   184    1
   212   178   188   un
   213   179   183    1
   214   179   189   un
   215   180   185    1
   216   180   190   un
   217   181   187    1
   218   181   191   un
   219   182   186    1
   220   182   192   un
   221   188   194    1
   222   189   193    1
   223   190   195    1
   224   191   197    1
   225   192   196    1
   226   203   204   un
   227   203   205   un
   228   203   206   un
   229   203   207    1
   230   207   208    1
   231   209   210   un
   232   209   211   un
   233   209   212   un
   234   209   213    1
   235   213   214    1
   236   215   216   un
   237   217   218   un
   238   217   223    1
   239   217   234   un
   240   217   243   un
   241   217   257   un
   242   217   258   un
   243   218   231   un
   244   219   221   un
   245   219   229   un
   246   219   231   un
   247   220   231   un
   248   220   234   un
   249   221   222    1
   250   221   225   un
   251   223   224    1
   252   223   274    1
   253   225   226   un
   254   225   284   un
   255   226   227   un
   256   226   278   un
   257   227   228    1
   258   227   229   un
   259   229   230    1
   260   232   235   un
   261   232   241   un
   262   232   259   un
   263   232   272    1
   264   233   236   un
   265   233   242   un
   266   233   246   un
   267   233   260   un
   268   233   261   un
   269   233   273    1
   270   234   254   un
   271   235   252   un
   272   236   253   un
   273   237   238   un
   274   237   244   un
   275   238   255   un
   276   239   240   un
   277   239   245   un
   278   240   256   un
   279   241   308   un
   280   242   309   un
   281   243   310   un
   282   244   311   un
   283   245   312   un
   284   247   262   un
   285   247   298   un
   286   247   308   un
   287   248   263   un
   288   248   299   un
   289   248   309   un
   290   249   264   un
   291   249   300   un
   292   249   310   un
   293   250   265   un
   294   250   301   un
   295   250   311   un
   296   251   266   un
   297   251   302   un
   298   251   312   un
   299   252   308   un
   300   253   309   un
   301   254   310   un
   302   255   311   un
   303   256   312   un
   304   262   268    1
   305   262   278   un
   306   263   267    1
   307   263   279   un
   308   264   269    1
   309   264   280   un
   310   265   271    1
   311   265   281   un
   312   266   270    1
   313   266   282   un
   314   272   275    1
   315   273   276    1
   316   273   277    1
   317   278   283   un
   318   279   283   un
   319   279   284   un
   320   280   285   un
   321   280   287   un
   322   281   285   un
   323   281   286   un
   324   282   286   un
   325   282   287   un
   326   283   288   un
   327   284   289   un
   328   285   290   un
   329   286   291   un
   330   287   292   un
   331   288   294    1
   332   288   298   un
   333   289   293    1
   334   289   299   un
   335   290   295    1
   336   290   300   un
   337   291   297    1
   338   291   301   un
   339   292   296    1
   340   292   302   un
   341   298   304    1
   342   299   303    1
   343   300   305    1
   344   301   307    1
   345   302   306    1
   346   313   314   un
   347   313   315   un
   348   313   316   un
   349   313   317    1
   350   317   318    1
   351   319   320   un
   352   319   325    1
   353   319   336   un
   354   319   345   un
   355   319   359   un
   356   319   360   un
   357   320   333   un
   358   321   323   un
   359   321   331   un
   360   321   333   un
   361   322   333   un
   362   322   336   un
   363   323   324    1
   364   323   327   un
   365   325   326    1
   366   325   376    1
   367   327   328   un
   368   327   386   un
   369   328   329   un
   370   328   380   un
   371   329   330    1
   372   329   331   un
   373   331   332    1
   374   334   337   un
   375   334   343   un
   376   334   361   un
   377   334   374    1
   378   335   338   un
   379   335   344   un
   380   335   348   un
   381   335   362   un
   382   335   363   un
   383   335   375    1
   384   336   356   un
   385   337   354   un
   386   338   355   un
   387   339   340   un
   388   339   346   un
   389   340   357   un
   390   341   342   un
   391   341   347   un
   392   342   358   un
   393   343   410   un
   394   344   411   un
   395   345   412   un
   396   346   413   un
   397   347   414   un
   398   349   364   un
   399   349   400   un
   400   349   410   un
   401   350   365   un
   402   350   401   un
   403   350   411   un
   404   351   366   un
   405   351   402   un
   406   351   412   un
   407   352   367   un
   408   352   403   un
   409   352   413   un
   410   353   368   un
   411   353   404   un
   412   353   414   un
   413   354   410   un
   414   355   411   un
   415   356   412   un
   416   357   413   un
   417   358   414   un
   418   364   370    1
   419   364   380   un
   420   365   369    1
   421   365   381   un
   422   366   371    1
   423   366   382   un
   424   367   373    1
   425   367   383   un
   426   368   372    1
   427   368   384   un
   428   374   377    1
   429   375   378    1
   430   375   379    1
   431   380   385   un
   432   381   385   un
   433   381   386   un
   434   382   387   un
   435   382   389   un
   436   383   387   un
   437   383   388   un
   438   384   388   un
   439   384   389   un
   440   385   390   un
   441   386   391   un
   442   387   392   un
   443   388   393   un
   444   389   394   un
   445   390   396    1
   446   390   400   un
   447   391   395    1
   448   391   401   un
   449   392   397    1
   450   392   402   un
   451   393   399    1
   452   393   403   un
   453   394   398    1
   454   394   404   un
   455   400   406    1
   456   401   405    1
   457   402   407    1
   458   403   409    1
   459   404   408    1
   460   415   416   un
   461    20   417   un
   462    20   421    1
   463    20   434   un
   464    20   444   un
   465   417   429   un
   466   418   419   un
   467   418   427   un
   468   418   429   un
   469    45   429   un
   470   419   420    1
   471   419   423   un
   472   421   422    1
   473   421   458    1
   474   423   424   un
   475   423   468   un
   476   424   425   un
   477   424   462   un
   478   425   426    1
   479   425   427   un
   480   427   428    1
   481   210   432   un
   482   210   445   un
   483   210   456    1
   484   336   433   un
   485   336   436   un
   486   336   457    1
   487   430   431   un
   488   430   435   un
   489   431   442   un
   490   126   443   un
   491   432   492   un
   492   433   493   un
   493   434   494   un
   494   435   495   un
   495   136   496   un
   496   437   446   un
   497   437   482   un
   498   437   492   un
   499   438   447   un
   500   438   483   un
   501   438   493   un
   502   439   448   un
   503   439   484   un
   504   439   494   un
   505   440   449   un
   506   440   485   un
   507   440   495   un
   508   441   450   un
   509   441   486   un
   510   441   496   un
   511   212   492   un
   512   359   493   un
   513    44   494   un
   514   442   495   un
   515   443   496   un
   516   446   452    1
   517   446   462   un
   518   447   451    1
   519   447   463   un
   520   448   453    1
   521   448   464   un
   522   449   455    1
   523   449   465   un
   524   450   454    1
   525   450   466   un
   526   456   459    1
   527   457   460    1
   528   457   461    1
   529   462   467   un
   530   463   467   un
   531   463   468   un
   532   464   469   un
   533   464   471   un
   534   465   469   un
   535   465   470   un
   536   466   470   un
   537   466   471   un
   538   467   472   un
   539   468   473   un
   540   469   474   un
   541   470   475   un
   542   471   476   un
   543   472   478    1
   544   472   482   un
   545   473   477    1
   546   473   483   un
   547   474   479    1
   548   474   484   un
   549   475   481    1
   550   475   485   un
   551   476   480    1
   552   476   486   un
   553   482   488    1
   554   483   487    1
   555   484   489    1
   556   485   491    1
   557   486   490    1
   558   497   498   un
   559   235   499   un
   560   235   500    1
   561   500   501    1
   562   339   503   un
   563   339   506    1
   564   341   502   un
   565   341   504   un
   566   341   505   un
   567   341   507    1
   568   506   508    1
   569   507   509    1
   570   507   510    1
   571   415   511   un
   572   415   512   un
   573   415   513    1
   574   513   514    1
   575   515   516   un
   576   342   517   un
   577   342   521    1
   578   342   534   un
   579   342   546   un
   580   517   529   un
   581   518   519   un
   582   518   527   un
   583   518   529   un
   584   505   529   un
   585   519   520    1
   586   519   523   un
   587   521   522    1
   588   521   560    1
   589   523   524   un
   590   523   570   un
   591   524   525   un
   592   524   564   un
   593   525   526    1
   594   525   527   un
   595   527   528    1
   596   106   532   un
   597   106   547   un
   598   106   558    1
   599    18   533   un
   600    18   537   un
   601    18   559    1
   602   105   543   un
   603   530   531   un
   604   530   535   un
   605   531   544   un
   606   239   536   un
   607   240   545   un
   608   532   594   un
   609   533   595   un
   610   534   596   un
   611   535   597   un
   612   536   598   un
   613   538   548   un
   614   538   584   un
   615   538   594   un
   616   539   549   un
   617   539   585   un
   618   539   595   un
   619   540   550   un
   620   540   586   un
   621   540   596   un
   622   541   551   un
   623   541   587   un
   624   541   597   un
   625   542   552   un
   626   542   588   un
   627   542   598   un
   628   543   594   un
   629    42   595   un
   630   504   596   un
   631   544   597   un
   632   545   598   un
   633   548   554    1
   634   548   564   un
   635   549   553    1
   636   549   565   un
   637   550   555    1
   638   550   566   un
   639   551   557    1
   640   551   567   un
   641   552   556    1
   642   552   568   un
   643   558   561    1
   644   559   562    1
   645   559   563    1
   646   564   569   un
   647   565   569   un
   648   565   570   un
   649   566   571   un
   650   566   573   un
   651   567   571   un
   652   567   572   un
   653   568   572   un
   654   568   573   un
   655   569   574   un
   656   570   575   un
   657   571   576   un
   658   572   577   un
   659   573   578   un
   660   574   580    1
   661   574   584   un
   662   575   579    1
   663   575   585   un
   664   576   581    1
   665   576   586   un
   666   577   583    1
   667   577   587   un
   668   578   582    1
   669   578   588   un
   670   584   590    1
   671   585   589    1
   672   586   591    1
   673   587   593    1
   674   588   592    1
   675   128   599   un
   676   128   600    1
   677   600   601    1
   678   431   602   un
   679   431   603    1
   680   603   604    1
   681    24   605   un
   682    24   610    1
   683    24   620   un
   684    24   631   un
   685   605   618   un
   686   606   608   un
   687   606   616   un
   688   606   618   un
   689   607   618   un
   690   607    23   un
   691   608   609    1
   692   608   612   un
   693   610   611    1
   694   610   644    1
   695   612   613   un
   696   612   652   un
   697   613   614   un
   698   613   646   un
   699   614   615    1
   700   614   616   un
   701   616   617    1
   702   498   619   un
   703   498   632   un
   704   498   643    1
   705    23   629   un
   706   497   628   un
   707   216   621   un
   708   215   630   un
   709   124   622   un
   710   619   676   un
   711   502   677   un
   712   620   678   un
   713   621   679   un
   714   622   680   un
   715   623   633   un
   716   623   666   un
   717   623   676   un
   718   624   634   un
   719   624   667   un
   720   624   677   un
   721   625   635   un
   722   625   668   un
   723   625   678   un
   724   626   636   un
   725   626   669   un
   726   626   679   un
   727   627   637   un
   728   627   670   un
   729   627   680   un
   730   628   676   un
   731   546   677   un
   732   629   678   un
   733   630   679   un
   734   148   680   un
   735   633   639    1
   736   633   646   un
   737   634   638    1
   738   634   647   un
   739   635   640    1
   740   635   648   un
   741   636   642    1
   742   636   649   un
   743   637   641    1
   744   637   650   un
   745   643   645    1
   746   646   651   un
   747   647   651   un
   748   647   652   un
   749   648   653   un
   750   648   655   un
   751   649   653   un
   752   649   654   un
   753   650   654   un
   754   650   655   un
   755   651   656   un
   756   652   657   un
   757   653   658   un
   758   654   659   un
   759   655   660   un
   760   656   662    1
   761   656   666   un
   762   657   661    1
   763   657   667   un
   764   658   663    1
   765   658   668   un
   766   659   665    1
   767   659   669   un
   768   660   664    1
   769   660   670   un
   770   666   672    1
   771   667   671    1
   772   668   673    1
   773   669   675    1
   774   670   674    1
   775   105   681   un
   776   105   682    1
   777   682   683    1
   778   127   685   un
   779   127   688    1
   780   129   684   un
   781   129   686   un
   782   129   687   un
   783   129   689    1
   784   688   690    1
   785   689   691    1
   786   689   692    1
   787   126   693   un
   788   126   697    1
   789   126   709   un
   790   693   705   un
   791   694   695   un
   792   694   703   un
   793   694   705   un
   794   150   705   un
   795   695   696    1
   796   695   699   un
   797   697   698    1
   798   697   730    1
   799   699   700   un
   800   699   738   un
   801   700   701   un
   802   700   732   un
   803   701   702    1
   804   701   703   un
   805   703   704    1
   806   706   707   un
   807   706   708   un
   808   706   718   un
   809   706   729    1
   810   707   716   un
   811   236   717   un
   812   314   710   un
   813   708   762   un
   814   246   763   un
   815   709   764   un
   816   710   765   un
   817   537   766   un
   818   711   719   un
   819   711   752   un
   820   711   762   un
   821   712   720   un
   822   712   753   un
   823   712   763   un
   824   713   721   un
   825   713   754   un
   826   713   764   un
   827   714   722   un
   828   714   755   un
   829   714   765   un
   830   715   723   un
   831   715   756   un
   832   715   766   un
   833   716   762   un
   834   717   763   un
   835   151   764   un
   836   316   765   un
   837    41   766   un
   838   719   725    1
   839   719   732   un
   840   720   724    1
   841   720   733   un
   842   721   726    1
   843   721   734   un
   844   722   728    1
   845   722   735   un
   846   723   727    1
   847   723   736   un
   848   729   731    1
   849   732   737   un
   850   733   737   un
   851   733   738   un
   852   734   739   un
   853   734   741   un
   854   735   739   un
   855   735   740   un
   856   736   740   un
   857   736   741   un
   858   737   742   un
   859   738   743   un
   860   739   744   un
   861   740   745   un
   862   741   746   un
   863   742   748    1
   864   742   752   un
   865   743   747    1
   866   743   753   un
   867   744   749    1
   868   744   754   un
   869   745   751    1
   870   745   755   un
   871   746   750    1
   872   746   756   un
   873   752   758    1
   874   753   757    1
   875   754   759    1
   876   755   761    1
   877   756   760    1
   878   767   768   un
   879   767   769   un
   880   767   770   un
   881   767   771    1
   882   771   772    1
   883   314   773   un
   884   314   774    1
   885   774   775    1
   886   337   776   un
   887   337   777    1
   888   777   778    1
   889   430   779   un
   890   430   780    1
   891   780   781    1
   892   497   782   un
   893   497   783    1
   894   783   784    1
   895   236   785   un
   896   236   789    1
   897   236   801   un
   898   785   797   un
   899   786   787   un
   900   786   795   un
   901   786   797   un
   902   260   797   un
   903   787   788    1
   904   787   791   un
   905   789   790    1
   906   789   823    1
   907   791   792   un
   908   791   831   un
   909   792   793   un
   910   792   825   un
   911   793   794    1
   912   793   795   un
   913   795   796    1
   914   798   799   un
   915   798   800   un
   916   798   811   un
   917   798   822    1
   918   799   809   un
   919   338   810   un
   920   100   802   un
   921   124   803   un
   922   800   855   un
   923   348   856   un
   924   801   857   un
   925   802   858   un
   926   803   859   un
   927   804   812   un
   928   804   845   un
   929   804   855   un
   930   805   813   un
   931   805   846   un
   932   805   856   un
   933   806   814   un
   934   806   847   un
   935   806   857   un
   936   807   815   un
   937   807   848   un
   938   807   858   un
   939   808   816   un
   940   808   849   un
   941   808   859   un
   942   809   855   un
   943   810   856   un
   944   261   857   un
   945   102   858   un
   946   147   859   un
   947   812   818    1
   948   812   825   un
   949   813   817    1
   950   813   826   un
   951   814   819    1
   952   814   827   un
   953   815   821    1
   954   815   828   un
   955   816   820    1
   956   816   829   un
   957   822   824    1
   958   825   830   un
   959   826   830   un
   960   826   831   un
   961   827   832   un
   962   827   834   un
   963   828   832   un
   964   828   833   un
   965   829   833   un
   966   829   834   un
   967   830   835   un
   968   831   836   un
   969   832   837   un
   970   833   838   un
   971   834   839   un
   972   835   841    1
   973   835   845   un
   974   836   840    1
   975   836   846   un
   976   837   842    1
   977   837   847   un
   978   838   844    1
   979   838   848   un
   980   839   843    1
   981   839   849   un
   982   845   851    1
   983   846   850    1
   984   847   852    1
   985   848   854    1
   986   849   853    1
   987   860   861   un
   988   860   862   un
   989   860   863   un
   990   860   864    1
   991   864   865    1
   992    22   866   un
   993    22   867    1
   994   867   868    1
   995   240   869   un
   996   240   874    1
   997   240   884   un
   998   869   882   un
   999   870   872   un
  1000   870   880   un
  1001   870   882   un
  1002   871   882   un
  1003   871   239   un
  1004   872   873    1
  1005   872   876   un
  1006   874   875    1
  1007   874   906    1
  1008   876   877   un
  1009   876   914   un
  1010   877   878   un
  1011   877   908   un
  1012   878   879    1
  1013   878   880   un
  1014   880   881    1
  1015    98   883   un
  1016    98   894   un
  1017    98   905    1
  1018   239   892   un
  1019    97   891   un
  1020   861   885   un
  1021   130   893   un
  1022   883   938   un
  1023   436   939   un
  1024   884   940   un
  1025   885   941   un
  1026   684   942   un
  1027   886   895   un
  1028   886   928   un
  1029   886   938   un
  1030   887   896   un
  1031   887   929   un
  1032   887   939   un
  1033   888   897   un
  1034   888   930   un
  1035   888   940   un
  1036   889   898   un
  1037   889   931   un
  1038   889   941   un
  1039   890   899   un
  1040   890   932   un
  1041   890   942   un
  1042   891   938   un
  1043   360   939   un
  1044   892   940   un
  1045   863   941   un
  1046   893   942   un
  1047   895   901    1
  1048   895   908   un
  1049   896   900    1
  1050   896   909   un
  1051   897   902    1
  1052   897   910   un
  1053   898   904    1
  1054   898   911   un
  1055   899   903    1
  1056   899   912   un
  1057   905   907    1
  1058   908   913   un
  1059   909   913   un
  1060   909   914   un
  1061   910   915   un
  1062   910   917   un
  1063   911   915   un
  1064   911   916   un
  1065   912   916   un
  1066   912   917   un
  1067   913   918   un
  1068   914   919   un
  1069   915   920   un
  1070   916   921   un
  1071   917   922   un
  1072   918   924    1
  1073   918   928   un
  1074   919   923    1
  1075   919   929   un
  1076   920   925    1
  1077   920   930   un
  1078   921   927    1
  1079   921   931   un
  1080   922   926    1
  1081   922   932   un
  1082   928   934    1
  1083   929   933    1
  1084   930   935    1
  1085   931   937    1
  1086   932   936    1
  1087   707   943   un
  1088   707   944    1
  1089   944   945    1
  1090   130   946   un
  1091   130   950    1
  1092   130   961   un
  1093   946   958   un
  1094   947   948   un
  1095   947   956   un
  1096   947   958   un
  1097   686   958   un
  1098   948   949    1
  1099   948   952   un
  1100   950   951    1
  1101   950   982    1
  1102   952   953   un
  1103   952   992   un
  1104   953   954   un
  1105   953   986   un
  1106   954   955    1
  1107   954   956   un
  1108   956   957    1
  1109   768   959   un
  1110   768   969   un
  1111   768   980    1
  1112    23   960   un
  1113    23   981    1
  1114   416   962   un
  1115   234   963   un
  1116   959  1016   un
  1117   960  1017   un
  1118   961  1018   un
  1119   962  1019   un
  1120   963  1020   un
  1121   964   970   un
  1122   964  1006   un
  1123   964  1016   un
  1124   965   971   un
  1125   965  1007   un
  1126   965  1017   un
  1127   966   972   un
  1128   966  1008   un
  1129   966  1018   un
  1130   967   973   un
  1131   967  1009   un
  1132   967  1019   un
  1133   968   974   un
  1134   968  1010   un
  1135   968  1020   un
  1136   770  1016   un
  1137   631  1017   un
  1138   687  1018   un
  1139   512  1019   un
  1140   258  1020   un
  1141   970   976    1
  1142   970   986   un
  1143   971   975    1
  1144   971   987   un
  1145   972   977    1
  1146   972   988   un
  1147   973   979    1
  1148   973   989   un
  1149   974   978    1
  1150   974   990   un
  1151   980   983    1
  1152   981   984    1
  1153   981   985    1
  1154   986   991   un
  1155   987   991   un
  1156   987   992   un
  1157   988   993   un
  1158   988   995   un
  1159   989   993   un
  1160   989   994   un
  1161   990   994   un
  1162   990   995   un
  1163   991   996   un
  1164   992   997   un
  1165   993   998   un
  1166   994   999   un
  1167   995  1000   un
  1168   996  1002    1
  1169   996  1006   un
  1170   997  1001    1
  1171   997  1007   un
  1172   998  1003    1
  1173   998  1008   un
  1174   999  1005    1
  1175   999  1009   un
  1176  1000  1004    1
  1177  1000  1010   un
  1178  1006  1012    1
  1179  1007  1011    1
  1180  1008  1013    1
  1181  1009  1015    1
  1182  1010  1014    1
  1183   125  1021   un
  1184   125  1022    1
  1185  1022  1023    1
  1186   338  1024   un
  1187   338  1028    1
  1188   338  1039   un
  1189  1024  1036   un
  1190  1025  1026   un
  1191  1025  1034   un
  1192  1025  1036   un
  1193   363  1036   un
  1194  1026  1027    1
  1195  1026  1030   un
  1196  1028  1029    1
  1197  1028  1060    1
  1198  1030  1031   un
  1199  1030  1070   un
  1200  1031  1032   un
  1201  1031  1064   un
  1202  1032  1033    1
  1203  1032  1034   un
  1204  1034  1035    1
  1205   204  1037   un
  1206   204  1047   un
  1207   204  1058    1
  1208   234  1038   un
  1209   234  1059    1
  1210   516  1040   un
  1211   515  1046   un
  1212  1037  1094   un
  1213  1038  1095   un
  1214  1039  1096   un
  1215  1040  1097   un
  1216    30  1098   un
  1217  1041  1048   un
  1218  1041  1084   un
  1219  1041  1094   un
  1220  1042  1049   un
  1221  1042  1085   un
  1222  1042  1095   un
  1223  1043  1050   un
  1224  1043  1086   un
  1225  1043  1096   un
  1226  1044  1051   un
  1227  1044  1087   un
  1228  1044  1097   un
  1229  1045  1052   un
  1230  1045  1088   un
  1231  1045  1098   un
  1232   206  1094   un
  1233   257  1095   un
  1234   362  1096   un
  1235  1046  1097   un
  1236   444  1098   un
  1237  1048  1054    1
  1238  1048  1064   un
  1239  1049  1053    1
  1240  1049  1065   un
  1241  1050  1055    1
  1242  1050  1066   un
  1243  1051  1057    1
  1244  1051  1067   un
  1245  1052  1056    1
  1246  1052  1068   un
  1247  1058  1061    1
  1248  1059  1062    1
  1249  1059  1063    1
  1250  1064  1069   un
  1251  1065  1069   un
  1252  1065  1070   un
  1253  1066  1071   un
  1254  1066  1073   un
  1255  1067  1071   un
  1256  1067  1072   un
  1257  1068  1072   un
  1258  1068  1073   un
  1259  1069  1074   un
  1260  1070  1075   un
  1261  1071  1076   un
  1262  1072  1077   un
  1263  1073  1078   un
  1264  1074  1080    1
  1265  1074  1084   un
  1266  1075  1079    1
  1267  1075  1085   un
  1268  1076  1081    1
  1269  1076  1086   un
  1270  1077  1083    1
  1271  1077  1087   un
  1272  1078  1082    1
  1273  1078  1088   un
  1274  1084  1090    1
  1275  1085  1089    1
  1276  1086  1091    1
  1277  1087  1093    1
  1278  1088  1092    1
  1279   216  1099   un
  1280   216  1100    1
  1281   124  1101    1
  1282  1100  1102    1
  1283  1101  1103    1
  1284  1101  1104    1
  1285   238  1105   un
  1286   238  1106    1
  1287  1106  1107    1
  1288   515  1108   un
  1289   515  1109    1
  1290  1109  1110    1
  1291   530  1111   un
  1292   530  1112    1
  1293   239  1113    1
  1294  1112  1114    1
  1295  1113  1115    1
  1296  1113  1116    1
  1297    21  1117   un
  1298    21  1118    1
  1299  1118  1119    1
  1300    97  1120   un
  1301    97  1121    1
  1302  1121  1122    1
  1303   215  1123   un
  1304   215  1124    1
  1305  1124  1125    1
  1306   237  1126   un
  1307   237  1127    1
  1308  1127  1128    1
  1309    19  1129   un
  1310    19  1130    1
  1311  1130  1131    1
  1312   100  1132   un
  1313   100  1133    1
  1314  1133  1134    1
  1315   340  1135   un
  1316   340  1136    1
  1317  1136  1137    1
  1318   416  1138   un
  1319   416  1139    1
  1320  1139  1140    1
  1321   516  1141   un
  1322   516  1142    1
  1323  1142  1143    1
  1324   531  1144   un
  1325   531  1145    1
  1326  1145  1146    1
  1327   799  1147   un
  1328   799  1148    1
  1329  1148  1149    1
  1330   861  1150   un
  1331   861  1151    1
  1332  1151  1152    1
  1333  1144  1162   un
  1334  1153  1154   un
  1335  1153  1160   un
  1336  1153  1162   un
  1337  1111  1162   un
  1338  1154  1155    1
  1339  1154  1156   un
  1340  1156  1157   un
  1341  1156  1172   un
  1342  1157  1158   un
  1343  1157  1169   un
  1344  1158  1159    1
  1345  1158  1160   un
  1346  1160  1161    1
  1347  1135  1181   un
  1348  1120  1182   un
  1349  1163  1165   un
  1350  1163  1177   un
  1351  1163  1181   un
  1352  1164  1166   un
  1353  1164  1178   un
  1354  1164  1182   un
  1355   503  1181   un
  1356   894  1182   un
  1357  1165  1168    1
  1358  1165  1169   un
  1359  1166  1167    1
  1360  1166  1170   un
  1361  1169  1171   un
  1362  1170  1171   un
  1363  1170  1172   un
  1364  1171  1173   un
  1365  1172  1174   un
  1366  1173  1176    1
  1367  1173  1177   un
  1368  1174  1175    1
  1369  1174  1178   un
  1370  1177  1180    1
  1371  1178  1179    1
  1372  1147  1210   un
  1373   499  1211   un
  1374   205  1212   un
  1375  1183  1186   un
  1376  1183  1204   un
  1377  1183  1210   un
  1378  1184  1187   un
  1379  1184  1205   un
  1380  1184  1211   un
  1381  1185  1188   un
  1382  1185  1206   un
  1383  1185  1212   un
  1384   811  1210   un
  1385   259  1211   un
  1386  1047  1212   un
  1387  1186  1189    1
  1388  1186  1192   un
  1389  1187  1191    1
  1390  1187  1193   un
  1391  1188  1190    1
  1392  1188  1194   un
  1393  1192  1195   un
  1394  1192  1197   un
  1395  1193  1195   un
  1396  1193  1196   un
  1397  1194  1196   un
  1398  1194  1197   un
  1399  1195  1198   un
  1400  1196  1199   un
  1401  1197  1200   un
  1402  1198  1201    1
  1403  1198  1204   un
  1404  1199  1203    1
  1405  1199  1205   un
  1406  1200  1202    1
  1407  1200  1206   un
  1408  1204  1207    1
  1409  1205  1209    1
  1410  1206  1208    1
  1411   769  1222   un
  1412  1213  1214   un
  1413  1213  1220   un
  1414  1213  1222   un
  1415   969  1222   un
  1416  1214  1215    1
  1417  1214  1216   un
  1418  1216  1217   un
  1419  1216  1232   un
  1420  1217  1218   un
  1421  1217  1229   un
  1422  1218  1219    1
  1423  1218  1220   un
  1424  1220  1221    1
  1425   599  1241   un
  1426  1123  1242   un
  1427  1223  1225   un
  1428  1223  1237   un
  1429  1223  1241   un
  1430  1224  1226   un
  1431  1224  1238   un
  1432  1224  1242   un
  1433   685  1241   un
  1434  1099  1242   un
  1435  1225  1228    1
  1436  1225  1229   un
  1437  1226  1227    1
  1438  1226  1230   un
  1439  1229  1231   un
  1440  1230  1231   un
  1441  1230  1232   un
  1442  1231  1233   un
  1443  1232  1234   un
  1444  1233  1236    1
  1445  1233  1237   un
  1446  1234  1235    1
  1447  1234  1238   un
  1448  1237  1240    1
  1449  1238  1239    1
  1450   602  1270   un
  1451  1129  1271   un
  1452   315  1272   un
  1453  1243  1246   un
  1454  1243  1264   un
  1455  1243  1270   un
  1456  1244  1247   un
  1457  1244  1265   un
  1458  1244  1271   un
  1459  1245  1248   un
  1460  1245  1266   un
  1461  1245  1272   un
  1462   779  1270   un
  1463    43  1271   un
  1464   773  1272   un
  1465  1246  1249    1
  1466  1246  1252   un
  1467  1247  1251    1
  1468  1247  1253   un
  1469  1248  1250    1
  1470  1248  1254   un
  1471  1252  1255   un
  1472  1252  1257   un
  1473  1253  1255   un
  1474  1253  1256   un
  1475  1254  1256   un
  1476  1254  1257   un
  1477  1255  1258   un
  1478  1256  1259   un
  1479  1257  1260   un
  1480  1258  1261    1
  1481  1258  1264   un
  1482  1259  1263    1
  1483  1259  1265   un
  1484  1260  1262    1
  1485  1260  1266   un
  1486  1264  1267    1
  1487  1265  1269    1
  1488  1266  1268    1
  1489   866  1282   un
  1490  1273  1274   un
  1491  1273  1280   un
  1492  1273  1282   un
  1493  1117  1282   un
  1494  1274  1275    1
  1495  1274  1276   un
  1496  1276  1277   un
  1497  1276  1292   un
  1498  1277  1278   un
  1499  1277  1289   un
  1500  1278  1279    1
  1501  1278  1280   un
  1502  1280  1281    1
  1503   681  1301   un
  1504   782  1302   un
  1505  1283  1285   un
  1506  1283  1297   un
  1507  1283  1301   un
  1508  1284  1286   un
  1509  1284  1298   un
  1510  1284  1302   un
  1511   547  1301   un
  1512   632  1302   un
  1513  1285  1288    1
  1514  1285  1289   un
  1515  1286  1287    1
  1516  1286  1290   un
  1517  1289  1291   un
  1518  1290  1291   un
  1519  1290  1292   un
  1520  1291  1293   un
  1521  1292  1294   un
  1522  1293  1296    1
  1523  1293  1297   un
  1524  1294  1295    1
  1525  1294  1298   un
  1526  1297  1300    1
  1527  1298  1299    1
  1528   776  1312   un
  1529  1303  1304   un
  1530  1303  1310   un
  1531  1303  1312   un
  1532   361  1312   un
  1533  1304  1305    1
  1534  1304  1306   un
  1535  1306  1307   un
  1536  1306  1322   un
  1537  1307  1308   un
  1538  1307  1319   un
  1539  1308  1309    1
  1540  1308  1310   un
  1541  1310  1311    1
  1542   211  1331   un
  1543  1108  1332   un
  1544  1313  1315   un
  1545  1313  1327   un
  1546  1313  1331   un
  1547  1314  1316   un
  1548  1314  1328   un
  1549  1314  1332   un
  1550   445  1331   un
  1551  1141  1332   un
  1552  1315  1318    1
  1553  1315  1319   un
  1554  1316  1317    1
  1555  1316  1320   un
  1556  1319  1321   un
  1557  1320  1321   un
  1558  1320  1322   un
  1559  1321  1323   un
  1560  1322  1324   un
  1561  1323  1326    1
  1562  1323  1327   un
  1563  1324  1325    1
  1564  1324  1328   un
  1565  1327  1330    1
  1566  1328  1329    1
  1567  1105  1360   un
  1568   511  1361   un
  1569   862  1362   un
  1570  1333  1336   un
  1571  1333  1354   un
  1572  1333  1360   un
  1573  1334  1337   un
  1574  1334  1355   un
  1575  1334  1361   un
  1576  1335  1338   un
  1577  1335  1356   un
  1578  1335  1362   un
  1579  1126  1360   un
  1580  1138  1361   un
  1581  1150  1362   un
  1582  1336  1339    1
  1583  1336  1342   un
  1584  1337  1341    1
  1585  1337  1343   un
  1586  1338  1340    1
  1587  1338  1344   un
  1588  1342  1345   un
  1589  1342  1347   un
  1590  1343  1345   un
  1591  1343  1346   un
  1592  1344  1346   un
  1593  1344  1347   un
  1594  1345  1348   un
  1595  1346  1349   un
  1596  1347  1350   un
  1597  1348  1351    1
  1598  1348  1354   un
  1599  1349  1353    1
  1600  1349  1355   un
  1601  1350  1352    1
  1602  1350  1356   un
  1603  1354  1357    1
  1604  1355  1359    1
  1605  1356  1358    1
  1606  1021  1390   un
  1607   101  1391   un
  1608   943  1392   un
  1609  1363  1366   un
  1610  1363  1384   un
  1611  1363  1390   un
  1612  1364  1367   un
  1613  1364  1385   un
  1614  1364  1391   un
  1615  1365  1368   un
  1616  1365  1386   un
  1617  1365  1392   un
  1618   149  1390   un
  1619  1132  1391   un
  1620   718  1392   un
  1621  1366  1369    1
  1622  1366  1372   un
  1623  1367  1371    1
  1624  1367  1373   un
  1625  1368  1370    1
  1626  1368  1374   un
  1627  1372  1375   un
  1628  1372  1377   un
  1629  1373  1375   un
  1630  1373  1376   un
  1631  1374  1376   un
  1632  1374  1377   un
  1633  1375  1378   un
  1634  1376  1379   un
  1635  1377  1380   un
  1636  1378  1381    1
  1637  1378  1384   un
  1638  1379  1383    1
  1639  1379  1385   un
  1640  1380  1382    1
  1641  1380  1386   un
  1642  1384  1387    1
  1643  1385  1389    1
  1644  1386  1388    1
@<TRIPOS>SUBSTRUCTURE
     1 RES1        1 GROUP             0 ****  ****    0  
@<TRIPOS>CRYSIN
   37.2300   37.2300   37.2300   90.0000   90.0000   90.0000   209     1
