@<TRIPOS>MOLECULE
n1304
  2400  2808     1     0     0
SMALL
NO_CHARGES
****
Generated from the CSD

@<TRIPOS>ATOM
     1 Cu1     24.4465  30.0569   5.6104   Cu        1 RES1   0.0000
     2 Cu2     24.4465  31.9369   7.4904   Cu        1 RES1   0.0000
     3 O1      23.0736  29.2478   6.7228   O.co2     1 RES1   0.0000
     4 O2      23.0379  30.8324   8.3255   O.co2     1 RES1   0.0000
     5 O3      24.4465  28.4870   4.0405   O.2       1 RES1   0.0000
     6 O4      24.4465  33.4692   9.0227   O.2       1 RES1   0.0000
     7 C1      22.6555  29.8179   7.7060   C.2       1 RES1   0.0000
     8 C2      21.5657  29.0151   8.5362   C.2       1 RES1   0.0000
     9 C3      20.9291  27.9639   7.8679   C.2       1 RES1   0.0000
    10 H3      21.1951  27.6979   7.0064   H         1 RES1   0.0000
    11 C4      21.1570  29.5113   9.6549   C.2       1 RES1   0.0000
    12 H4      21.5129  30.3137   9.9937   H         1 RES1   0.0000
    13 C5      20.1195  28.7735  10.3702   C.2       1 RES1   0.0000
    14 C6      19.5494  29.3436  11.6121   C.1       1 RES1   0.0000
    15 C7      19.2052  29.6878  12.6877   C.1       1 RES1   0.0000
    16 C8      18.6576  30.2354  13.8074   C.1       1 RES1   0.0000
    17 C9      18.3055  30.5875  14.8879   C.1       1 RES1   0.0000
    18 C10     17.7628  31.1302  16.1005   C.2       1 RES1   0.0000
    19 C11     18.2909  32.2987  16.5943   C.2       1 RES1   0.0000
    20 H11     18.9900  32.7436  16.1494   H         1 RES1   0.0000
    21 O1      19.6452  42.1702  23.0736   O.co2     1 RES1   0.0000
    22 O2      18.0606  40.5675  23.0379   O.co2     1 RES1   0.0000
    23 C1      19.0751  41.1870  22.6555   C.2       1 RES1   0.0000
    24 C2      19.8779  40.3568  21.5657   C.2       1 RES1   0.0000
    25 C3      20.9291  41.0251  20.9291   C.2       1 RES1   0.0000
    26 H3      21.1951  41.8866  21.1951   H         1 RES1   0.0000
    27 C4      19.3817  39.2381  21.1570   C.2       1 RES1   0.0000
    28 H4      18.5793  38.8993  21.5129   H         1 RES1   0.0000
    29 C5      20.1195  38.5228  20.1195   C.2       1 RES1   0.0000
    30 C6      19.5494  37.2809  19.5494   C.1       1 RES1   0.0000
    31 C7      19.2052  36.2053  19.2052   C.1       1 RES1   0.0000
    32 C8      18.6576  35.0856  18.6576   C.1       1 RES1   0.0000
    33 C9      18.3055  34.0051  18.3055   C.1       1 RES1   0.0000
    34 C10     17.7628  32.7925  17.7628   C.2       1 RES1   0.0000
    35 C11     16.5943  32.2987  18.2909   C.2       1 RES1   0.0000
    36 H11     16.1494  32.7436  18.9900   H         1 RES1   0.0000
    37 O1       6.7228  25.8194  19.6452   O.co2     1 RES1   0.0000
    38 O2       8.3255  25.8551  18.0606   O.co2     1 RES1   0.0000
    39 C1       7.7060  26.2375  19.0751   C.2       1 RES1   0.0000
    40 C2       8.5362  27.3273  19.8779   C.2       1 RES1   0.0000
    41 C3       7.8679  27.9639  20.9291   C.2       1 RES1   0.0000
    42 H3       7.0064  27.6979  21.1951   H         1 RES1   0.0000
    43 C4       9.6549  27.7360  19.3817   C.2       1 RES1   0.0000
    44 H4       9.9937  27.3801  18.5793   H         1 RES1   0.0000
    45 C5      10.3702  28.7735  20.1195   C.2       1 RES1   0.0000
    46 C6      11.6121  29.3436  19.5494   C.1       1 RES1   0.0000
    47 C7      12.6877  29.6878  19.2052   C.1       1 RES1   0.0000
    48 C8      13.8074  30.2354  18.6576   C.1       1 RES1   0.0000
    49 C9      14.8879  30.5875  18.3055   C.1       1 RES1   0.0000
    50 C10     16.1005  31.1302  17.7628   C.2       1 RES1   0.0000
    51 C11     16.5943  30.6021  16.5943   C.2       1 RES1   0.0000
    52 H11     16.1494  29.9030  16.1494   H         1 RES1   0.0000
    53 O1      19.6452  25.8194   6.7228   O.co2     1 RES1   0.0000
    54 O2      18.0606  25.8551   8.3255   O.co2     1 RES1   0.0000
    55 C1      19.0751  26.2375   7.7060   C.2       1 RES1   0.0000
    56 C2      19.8779  27.3273   8.5362   C.2       1 RES1   0.0000
    57 C4      19.3817  27.7360   9.6549   C.2       1 RES1   0.0000
    58 H4      18.5793  27.3801   9.9937   H         1 RES1   0.0000
    59 O1      23.0736  42.1702  19.6452   O.co2     1 RES1   0.0000
    60 O2      23.0379  40.5675  18.0606   O.co2     1 RES1   0.0000
    61 C1      22.6555  41.1870  19.0751   C.2       1 RES1   0.0000
    62 C2      21.5657  40.3568  19.8779   C.2       1 RES1   0.0000
    63 C4      21.1570  39.2381  19.3817   C.2       1 RES1   0.0000
    64 H4      21.5129  38.8993  18.5793   H         1 RES1   0.0000
    65 O1       6.7228  29.2478  23.0736   O.co2     1 RES1   0.0000
    66 O2       8.3255  30.8324  23.0379   O.co2     1 RES1   0.0000
    67 C1       7.7060  29.8179  22.6555   C.2       1 RES1   0.0000
    68 C2       8.5362  29.0151  21.5657   C.2       1 RES1   0.0000
    69 C4       9.6549  29.5113  21.1570   C.2       1 RES1   0.0000
    70 H4       9.9937  30.3137  21.5129   H         1 RES1   0.0000
    71 Cu1     18.8361  24.4465   5.6104   Cu        1 RES1   0.0000
    72 Cu2     16.9561  24.4465   7.4904   Cu        1 RES1   0.0000
    73 O1      19.6452  23.0736   6.7228   O.co2     1 RES1   0.0000
    74 O2      18.0606  23.0379   8.3255   O.co2     1 RES1   0.0000
    75 O3      20.4060  24.4465   4.0405   O.2       1 RES1   0.0000
    76 O4      15.4238  24.4465   9.0227   O.2       1 RES1   0.0000
    77 C1      19.0751  22.6555   7.7060   C.2       1 RES1   0.0000
    78 C2      19.8779  21.5657   8.5362   C.2       1 RES1   0.0000
    79 C3      20.9291  20.9291   7.8679   C.2       1 RES1   0.0000
    80 H3      21.1951  21.1951   7.0064   H         1 RES1   0.0000
    81 C4      19.3817  21.1570   9.6549   C.2       1 RES1   0.0000
    82 H4      18.5793  21.5129   9.9937   H         1 RES1   0.0000
    83 C5      20.1195  20.1195  10.3702   C.2       1 RES1   0.0000
    84 C6      19.5494  19.5494  11.6121   C.1       1 RES1   0.0000
    85 C7      19.2052  19.2052  12.6877   C.1       1 RES1   0.0000
    86 C8      18.6576  18.6576  13.8074   C.1       1 RES1   0.0000
    87 C9      18.3055  18.3055  14.8879   C.1       1 RES1   0.0000
    88 C10     17.7628  17.7628  16.1005   C.2       1 RES1   0.0000
    89 C11     16.5943  18.2909  16.5943   C.2       1 RES1   0.0000
    90 H11     16.1494  18.9900  16.1494   H         1 RES1   0.0000
    91 O1       6.7228  19.6452  23.0736   O.co2     1 RES1   0.0000
    92 O2       8.3255  18.0606  23.0379   O.co2     1 RES1   0.0000
    93 C1       7.7060  19.0751  22.6555   C.2       1 RES1   0.0000
    94 C2       8.5362  19.8779  21.5657   C.2       1 RES1   0.0000
    95 C3       7.8679  20.9291  20.9291   C.2       1 RES1   0.0000
    96 H3       7.0064  21.1951  21.1951   H         1 RES1   0.0000
    97 C4       9.6549  19.3817  21.1570   C.2       1 RES1   0.0000
    98 H4       9.9937  18.5793  21.5129   H         1 RES1   0.0000
    99 C5      10.3702  20.1195  20.1195   C.2       1 RES1   0.0000
   100 C6      11.6121  19.5494  19.5494   C.1       1 RES1   0.0000
   101 C7      12.6877  19.2052  19.2052   C.1       1 RES1   0.0000
   102 C8      13.8074  18.6576  18.6576   C.1       1 RES1   0.0000
   103 C9      14.8879  18.3055  18.3055   C.1       1 RES1   0.0000
   104 C10     16.1005  17.7628  17.7628   C.2       1 RES1   0.0000
   105 C11     16.5943  16.5943  18.2909   C.2       1 RES1   0.0000
   106 H11     16.1494  16.1494  18.9900   H         1 RES1   0.0000
   107 O1      23.0736   6.7228  19.6452   O.co2     1 RES1   0.0000
   108 O2      23.0379   8.3255  18.0606   O.co2     1 RES1   0.0000
   109 C1      22.6555   7.7060  19.0751   C.2       1 RES1   0.0000
   110 C2      21.5657   8.5362  19.8779   C.2       1 RES1   0.0000
   111 C3      20.9291   7.8679  20.9291   C.2       1 RES1   0.0000
   112 H3      21.1951   7.0064  21.1951   H         1 RES1   0.0000
   113 C4      21.1570   9.6549  19.3817   C.2       1 RES1   0.0000
   114 H4      21.5129   9.9937  18.5793   H         1 RES1   0.0000
   115 C5      20.1195  10.3702  20.1195   C.2       1 RES1   0.0000
   116 C6      19.5494  11.6121  19.5494   C.1       1 RES1   0.0000
   117 C7      19.2052  12.6877  19.2052   C.1       1 RES1   0.0000
   118 C8      18.6576  13.8074  18.6576   C.1       1 RES1   0.0000
   119 C9      18.3055  14.8879  18.3055   C.1       1 RES1   0.0000
   120 C10     17.7628  16.1005  17.7628   C.2       1 RES1   0.0000
   121 C11     18.2909  16.5943  16.5943   C.2       1 RES1   0.0000
   122 H11     18.9900  16.1494  16.1494   H         1 RES1   0.0000
   123 O1      23.0736  19.6452   6.7228   O.co2     1 RES1   0.0000
   124 O2      23.0379  18.0606   8.3255   O.co2     1 RES1   0.0000
   125 C1      22.6555  19.0751   7.7060   C.2       1 RES1   0.0000
   126 C2      21.5657  19.8779   8.5362   C.2       1 RES1   0.0000
   127 C4      21.1570  19.3817   9.6549   C.2       1 RES1   0.0000
   128 H4      21.5129  18.5793   9.9937   H         1 RES1   0.0000
   129 O1       6.7228  23.0736  19.6452   O.co2     1 RES1   0.0000
   130 O2       8.3255  23.0379  18.0606   O.co2     1 RES1   0.0000
   131 C1       7.7060  22.6555  19.0751   C.2       1 RES1   0.0000
   132 C2       8.5362  21.5657  19.8779   C.2       1 RES1   0.0000
   133 C4       9.6549  21.1570  19.3817   C.2       1 RES1   0.0000
   134 H4       9.9937  21.5129  18.5793   H         1 RES1   0.0000
   135 O1      19.6452   6.7228  23.0736   O.co2     1 RES1   0.0000
   136 O2      18.0606   8.3255  23.0379   O.co2     1 RES1   0.0000
   137 C1      19.0751   7.7060  22.6555   C.2       1 RES1   0.0000
   138 C2      19.8779   8.5362  21.5657   C.2       1 RES1   0.0000
   139 C4      19.3817   9.6549  21.1570   C.2       1 RES1   0.0000
   140 H4      18.5793   9.9937  21.5129   H         1 RES1   0.0000
   141 Cu1     18.8361  43.2826  24.4465   Cu        1 RES1   0.0000
   142 Cu2     16.9561  41.4026  24.4465   Cu        1 RES1   0.0000
   143 O3      20.4060  44.8525  24.4465   O.2       1 RES1   0.0000
   144 O4      15.4238  39.8703  24.4465   O.2       1 RES1   0.0000
   145 Cu1     24.4465  18.8361   5.6104   Cu        1 RES1   0.0000
   146 Cu1     24.4465   5.6104  18.8361   Cu        1 RES1   0.0000
   147 Cu1      5.6104  30.0569  24.4465   Cu        1 RES1   0.0000
   148 Cu1      5.6104  24.4465  18.8361   Cu        1 RES1   0.0000
   149 Cu1     18.8361   5.6104  24.4465   Cu        1 RES1   0.0000
   150 Cu1     24.4465  43.2826  18.8361   Cu        1 RES1   0.0000
   151 Cu1      5.6104  18.8361  24.4465   Cu        1 RES1   0.0000
   152 Cu2     24.4465  16.9561   7.4904   Cu        1 RES1   0.0000
   153 Cu2     24.4465   7.4904  16.9561   Cu        1 RES1   0.0000
   154 Cu2      7.4904  31.9369  24.4465   Cu        1 RES1   0.0000
   155 Cu2      7.4904  24.4465  16.9561   Cu        1 RES1   0.0000
   156 Cu2     16.9561   7.4904  24.4465   Cu        1 RES1   0.0000
   157 Cu2     24.4465  41.4026  16.9561   Cu        1 RES1   0.0000
   158 Cu2      7.4904  16.9561  24.4465   Cu        1 RES1   0.0000
   159 O1      25.8194  31.1693   4.8013   O.co2     1 RES1   0.0000
   160 O1      17.7237  25.8194   4.8013   O.co2     1 RES1   0.0000
   161 O1      17.7237  44.0917  25.8194   O.co2     1 RES1   0.0000
   162 O1      25.8194  29.2478   6.7228   O.co2     1 RES1   0.0000
   163 O1      19.6452  42.1702  25.8194   O.co2     1 RES1   0.0000
   164 O1      23.0736  31.1693   4.8013   O.co2     1 RES1   0.0000
   165 O1      17.7237  23.0736   4.8013   O.co2     1 RES1   0.0000
   166 O1      17.7237  44.0917  23.0736   O.co2     1 RES1   0.0000
   167 O2      25.8551  32.7720   6.3859   O.co2     1 RES1   0.0000
   168 O2      16.1210  25.8551   6.3859   O.co2     1 RES1   0.0000
   169 O2      16.1210  42.5071  25.8551   O.co2     1 RES1   0.0000
   170 O2      25.8551  30.8324   8.3255   O.co2     1 RES1   0.0000
   171 O2      18.0606  40.5675  25.8551   O.co2     1 RES1   0.0000
   172 O2      23.0379  32.7720   6.3859   O.co2     1 RES1   0.0000
   173 O2      16.1210  23.0379   6.3859   O.co2     1 RES1   0.0000
   174 O2      16.1210  42.5071  23.0379   O.co2     1 RES1   0.0000
   175 O1      25.8194  19.6452   6.7228   O.co2     1 RES1   0.0000
   176 O2      25.8551  18.0606   8.3255   O.co2     1 RES1   0.0000
   177 O3      24.4465  20.4060   4.0405   O.2       1 RES1   0.0000
   178 O4      24.4465  15.4238   9.0227   O.2       1 RES1   0.0000
   179 C1      26.2375  19.0751   7.7060   C.2       1 RES1   0.0000
   180 C2      27.3273  19.8779   8.5362   C.2       1 RES1   0.0000
   181 C3      27.9639  20.9291   7.8679   C.2       1 RES1   0.0000
   182 H3      27.6979  21.1951   7.0064   H         1 RES1   0.0000
   183 C4      27.7360  19.3817   9.6549   C.2       1 RES1   0.0000
   184 H4      27.3801  18.5793   9.9937   H         1 RES1   0.0000
   185 C5      28.7735  20.1195  10.3702   C.2       1 RES1   0.0000
   186 C6      29.3436  19.5494  11.6121   C.1       1 RES1   0.0000
   187 C7      29.6878  19.2052  12.6877   C.1       1 RES1   0.0000
   188 C8      30.2354  18.6576  13.8074   C.1       1 RES1   0.0000
   189 C9      30.5875  18.3055  14.8879   C.1       1 RES1   0.0000
   190 C10     31.1302  17.7628  16.1005   C.2       1 RES1   0.0000
   191 C11     30.6021  16.5943  16.5943   C.2       1 RES1   0.0000
   192 H11     29.9030  16.1494  16.1494   H         1 RES1   0.0000
   193 O1      29.2478   6.7228  23.0736   O.co2     1 RES1   0.0000
   194 O2      30.8324   8.3255  23.0379   O.co2     1 RES1   0.0000
   195 C1      29.8179   7.7060  22.6555   C.2       1 RES1   0.0000
   196 C2      29.0151   8.5362  21.5657   C.2       1 RES1   0.0000
   197 C3      27.9639   7.8679  20.9291   C.2       1 RES1   0.0000
   198 H3      27.6979   7.0064  21.1951   H         1 RES1   0.0000
   199 C4      29.5113   9.6549  21.1570   C.2       1 RES1   0.0000
   200 H4      30.3137   9.9937  21.5129   H         1 RES1   0.0000
   201 C5      28.7735  10.3702  20.1195   C.2       1 RES1   0.0000
   202 C6      29.3436  11.6121  19.5494   C.1       1 RES1   0.0000
   203 C7      29.6878  12.6877  19.2052   C.1       1 RES1   0.0000
   204 C8      30.2354  13.8074  18.6576   C.1       1 RES1   0.0000
   205 C9      30.5875  14.8879  18.3055   C.1       1 RES1   0.0000
   206 C10     31.1302  16.1005  17.7628   C.2       1 RES1   0.0000
   207 C11     32.2987  16.5943  18.2909   C.2       1 RES1   0.0000
   208 H11     32.7436  16.1494  18.9900   H         1 RES1   0.0000
   209 O1      42.1702  23.0736  19.6452   O.co2     1 RES1   0.0000
   210 O2      40.5675  23.0379  18.0606   O.co2     1 RES1   0.0000
   211 C1      41.1870  22.6555  19.0751   C.2       1 RES1   0.0000
   212 C2      40.3568  21.5657  19.8779   C.2       1 RES1   0.0000
   213 C3      41.0251  20.9291  20.9291   C.2       1 RES1   0.0000
   214 H3      41.8866  21.1951  21.1951   H         1 RES1   0.0000
   215 C4      39.2381  21.1570  19.3817   C.2       1 RES1   0.0000
   216 H4      38.8993  21.5129  18.5793   H         1 RES1   0.0000
   217 C5      38.5228  20.1195  20.1195   C.2       1 RES1   0.0000
   218 C6      37.2809  19.5494  19.5494   C.1       1 RES1   0.0000
   219 C7      36.2053  19.2052  19.2052   C.1       1 RES1   0.0000
   220 C8      35.0856  18.6576  18.6576   C.1       1 RES1   0.0000
   221 C9      34.0051  18.3055  18.3055   C.1       1 RES1   0.0000
   222 C10     32.7925  17.7628  17.7628   C.2       1 RES1   0.0000
   223 C11     32.2987  18.2909  16.5943   C.2       1 RES1   0.0000
   224 H11     32.7436  18.9900  16.1494   H         1 RES1   0.0000
   225 O1      29.2478  23.0736   6.7228   O.co2     1 RES1   0.0000
   226 O2      30.8324  23.0379   8.3255   O.co2     1 RES1   0.0000
   227 C1      29.8179  22.6555   7.7060   C.2       1 RES1   0.0000
   228 C2      29.0151  21.5657   8.5362   C.2       1 RES1   0.0000
   229 C4      29.5113  21.1570   9.6549   C.2       1 RES1   0.0000
   230 H4      30.3137  21.5129   9.9937   H         1 RES1   0.0000
   231 O1      25.8194   6.7228  19.6452   O.co2     1 RES1   0.0000
   232 O2      25.8551   8.3255  18.0606   O.co2     1 RES1   0.0000
   233 C1      26.2375   7.7060  19.0751   C.2       1 RES1   0.0000
   234 C2      27.3273   8.5362  19.8779   C.2       1 RES1   0.0000
   235 C4      27.7360   9.6549  19.3817   C.2       1 RES1   0.0000
   236 H4      27.3801   9.9937  18.5793   H         1 RES1   0.0000
   237 O1      42.1702  19.6452  23.0736   O.co2     1 RES1   0.0000
   238 O2      40.5675  18.0606  23.0379   O.co2     1 RES1   0.0000
   239 C1      41.1870  19.0751  22.6555   C.2       1 RES1   0.0000
   240 C2      40.3568  19.8779  21.5657   C.2       1 RES1   0.0000
   241 C4      39.2381  19.3817  21.1570   C.2       1 RES1   0.0000
   242 H4      38.8993  18.5793  21.5129   H         1 RES1   0.0000
   243 O3       4.0405  20.4060  24.4465   O.2       1 RES1   0.0000
   244 O4       9.0227  15.4238  24.4465   O.2       1 RES1   0.0000
   245 Cu1     30.0569  24.4465   5.6104   Cu        1 RES1   0.0000
   246 Cu1     43.2826  24.4465  18.8361   Cu        1 RES1   0.0000
   247 Cu1     43.2826  18.8361  24.4465   Cu        1 RES1   0.0000
   248 Cu1     30.0569   5.6104  24.4465   Cu        1 RES1   0.0000
   249 Cu2     31.9369  24.4465   7.4904   Cu        1 RES1   0.0000
   250 Cu2     41.4026  24.4465  16.9561   Cu        1 RES1   0.0000
   251 Cu2     41.4026  16.9561  24.4465   Cu        1 RES1   0.0000
   252 Cu2     31.9369   7.4904  24.4465   Cu        1 RES1   0.0000
   253 O1      23.0736  17.7237   4.8013   O.co2     1 RES1   0.0000
   254 O1       4.8013  17.7237  25.8194   O.co2     1 RES1   0.0000
   255 O1       6.7228  19.6452  25.8194   O.co2     1 RES1   0.0000
   256 O1      25.8194  17.7237   4.8013   O.co2     1 RES1   0.0000
   257 O1       4.8013  17.7237  23.0736   O.co2     1 RES1   0.0000
   258 O2      23.0379  16.1210   6.3859   O.co2     1 RES1   0.0000
   259 O2       6.3859  16.1210  25.8551   O.co2     1 RES1   0.0000
   260 O2       8.3255  18.0606  25.8551   O.co2     1 RES1   0.0000
   261 O2      25.8551  16.1210   6.3859   O.co2     1 RES1   0.0000
   262 O2       6.3859  16.1210  23.0379   O.co2     1 RES1   0.0000
   263 O1      29.2478  25.8194   6.7228   O.co2     1 RES1   0.0000
   264 O2      30.8324  25.8551   8.3255   O.co2     1 RES1   0.0000
   265 O3      28.4870  24.4465   4.0405   O.2       1 RES1   0.0000
   266 O4      33.4692  24.4465   9.0227   O.2       1 RES1   0.0000
   267 C1      29.8179  26.2375   7.7060   C.2       1 RES1   0.0000
   268 C2      29.0151  27.3273   8.5362   C.2       1 RES1   0.0000
   269 C3      27.9639  27.9639   7.8679   C.2       1 RES1   0.0000
   270 H3      27.6979  27.6979   7.0064   H         1 RES1   0.0000
   271 C4      29.5113  27.7360   9.6549   C.2       1 RES1   0.0000
   272 H4      30.3137  27.3801   9.9937   H         1 RES1   0.0000
   273 C5      28.7735  28.7735  10.3702   C.2       1 RES1   0.0000
   274 C6      29.3436  29.3436  11.6121   C.1       1 RES1   0.0000
   275 C7      29.6878  29.6878  12.6877   C.1       1 RES1   0.0000
   276 C8      30.2354  30.2354  13.8074   C.1       1 RES1   0.0000
   277 C9      30.5875  30.5875  14.8879   C.1       1 RES1   0.0000
   278 C10     31.1302  31.1302  16.1005   C.2       1 RES1   0.0000
   279 C11     32.2987  30.6021  16.5943   C.2       1 RES1   0.0000
   280 H11     32.7436  29.9030  16.1494   H         1 RES1   0.0000
   281 O1      42.1702  29.2478  23.0736   O.co2     1 RES1   0.0000
   282 O2      40.5675  30.8324  23.0379   O.co2     1 RES1   0.0000
   283 C1      41.1870  29.8179  22.6555   C.2       1 RES1   0.0000
   284 C2      40.3568  29.0151  21.5657   C.2       1 RES1   0.0000
   285 C3      41.0251  27.9639  20.9291   C.2       1 RES1   0.0000
   286 H3      41.8866  27.6979  21.1951   H         1 RES1   0.0000
   287 C4      39.2381  29.5113  21.1570   C.2       1 RES1   0.0000
   288 H4      38.8993  30.3137  21.5129   H         1 RES1   0.0000
   289 C5      38.5228  28.7735  20.1195   C.2       1 RES1   0.0000
   290 C6      37.2809  29.3436  19.5494   C.1       1 RES1   0.0000
   291 C7      36.2053  29.6878  19.2052   C.1       1 RES1   0.0000
   292 C8      35.0856  30.2354  18.6576   C.1       1 RES1   0.0000
   293 C9      34.0051  30.5875  18.3055   C.1       1 RES1   0.0000
   294 C10     32.7925  31.1302  17.7628   C.2       1 RES1   0.0000
   295 C11     32.2987  32.2987  18.2909   C.2       1 RES1   0.0000
   296 H11     32.7436  32.7436  18.9900   H         1 RES1   0.0000
   297 O1      25.8194  42.1702  19.6452   O.co2     1 RES1   0.0000
   298 O2      25.8551  40.5675  18.0606   O.co2     1 RES1   0.0000
   299 C1      26.2375  41.1870  19.0751   C.2       1 RES1   0.0000
   300 C2      27.3273  40.3568  19.8779   C.2       1 RES1   0.0000
   301 C3      27.9639  41.0251  20.9291   C.2       1 RES1   0.0000
   302 H3      27.6979  41.8866  21.1951   H         1 RES1   0.0000
   303 C4      27.7360  39.2381  19.3817   C.2       1 RES1   0.0000
   304 H4      27.3801  38.8993  18.5793   H         1 RES1   0.0000
   305 C5      28.7735  38.5228  20.1195   C.2       1 RES1   0.0000
   306 C6      29.3436  37.2809  19.5494   C.1       1 RES1   0.0000
   307 C7      29.6878  36.2053  19.2052   C.1       1 RES1   0.0000
   308 C8      30.2354  35.0856  18.6576   C.1       1 RES1   0.0000
   309 C9      30.5875  34.0051  18.3055   C.1       1 RES1   0.0000
   310 C10     31.1302  32.7925  17.7628   C.2       1 RES1   0.0000
   311 C11     30.6021  32.2987  16.5943   C.2       1 RES1   0.0000
   312 H11     29.9030  32.7436  16.1494   H         1 RES1   0.0000
   313 C1      26.2375  29.8179   7.7060   C.2       1 RES1   0.0000
   314 C2      27.3273  29.0151   8.5362   C.2       1 RES1   0.0000
   315 C4      27.7360  29.5113   9.6549   C.2       1 RES1   0.0000
   316 H4      27.3801  30.3137   9.9937   H         1 RES1   0.0000
   317 O1      42.1702  25.8194  19.6452   O.co2     1 RES1   0.0000
   318 O2      40.5675  25.8551  18.0606   O.co2     1 RES1   0.0000
   319 C1      41.1870  26.2375  19.0751   C.2       1 RES1   0.0000
   320 C2      40.3568  27.3273  19.8779   C.2       1 RES1   0.0000
   321 C4      39.2381  27.7360  19.3817   C.2       1 RES1   0.0000
   322 H4      38.8993  27.3801  18.5793   H         1 RES1   0.0000
   323 O1      29.2478  42.1702  23.0736   O.co2     1 RES1   0.0000
   324 O2      30.8324  40.5675  23.0379   O.co2     1 RES1   0.0000
   325 C1      29.8179  41.1870  22.6555   C.2       1 RES1   0.0000
   326 C2      29.0151  40.3568  21.5657   C.2       1 RES1   0.0000
   327 C4      29.5113  39.2381  21.1570   C.2       1 RES1   0.0000
   328 H4      30.3137  38.8993  21.5129   H         1 RES1   0.0000
   329 O3      28.4870   4.0405  24.4465   O.2       1 RES1   0.0000
   330 O4      33.4692   9.0227  24.4465   O.2       1 RES1   0.0000
   331 Cu1     30.0569  43.2826  24.4465   Cu        1 RES1   0.0000
   332 Cu1     43.2826  30.0569  24.4465   Cu        1 RES1   0.0000
   333 Cu2     31.9369  41.4026  24.4465   Cu        1 RES1   0.0000
   334 Cu2     41.4026  31.9369  24.4465   Cu        1 RES1   0.0000
   335 O1      31.1693  23.0736   4.8013   O.co2     1 RES1   0.0000
   336 O1      31.1693   4.8013  25.8194   O.co2     1 RES1   0.0000
   337 O1      29.2478   6.7228  25.8194   O.co2     1 RES1   0.0000
   338 O1      31.1693  25.8194   4.8013   O.co2     1 RES1   0.0000
   339 O1      31.1693   4.8013  23.0736   O.co2     1 RES1   0.0000
   340 O2      32.7720  23.0379   6.3859   O.co2     1 RES1   0.0000
   341 O2      32.7720   6.3859  25.8551   O.co2     1 RES1   0.0000
   342 O2      30.8324   8.3255  25.8551   O.co2     1 RES1   0.0000
   343 O2      32.7720  25.8551   6.3859   O.co2     1 RES1   0.0000
   344 O2      32.7720   6.3859  23.0379   O.co2     1 RES1   0.0000
   345 O3      44.8525  28.4870  24.4465   O.2       1 RES1   0.0000
   346 O4      39.8703  33.4692  24.4465   O.2       1 RES1   0.0000
   347 O1      44.0917  31.1693  25.8194   O.co2     1 RES1   0.0000
   348 O1      42.1702  29.2478  25.8194   O.co2     1 RES1   0.0000
   349 O1      44.0917  31.1693  23.0736   O.co2     1 RES1   0.0000
   350 O2      42.5071  32.7720  25.8551   O.co2     1 RES1   0.0000
   351 O2      40.5675  30.8324  25.8551   O.co2     1 RES1   0.0000
   352 O2      42.5071  32.7720  23.0379   O.co2     1 RES1   0.0000
   353 Cu1     24.4465  43.2826  30.0569   Cu        1 RES1   0.0000
   354 Cu2     24.4465  41.4026  31.9369   Cu        1 RES1   0.0000
   355 O1      23.0736  42.1702  29.2478   O.co2     1 RES1   0.0000
   356 O2      23.0379  40.5675  30.8324   O.co2     1 RES1   0.0000
   357 O3      24.4465  44.8525  28.4870   O.2       1 RES1   0.0000
   358 O4      24.4465  39.8703  33.4692   O.2       1 RES1   0.0000
   359 C1      22.6555  41.1870  29.8179   C.2       1 RES1   0.0000
   360 C2      21.5657  40.3568  29.0151   C.2       1 RES1   0.0000
   361 C3      20.9291  41.0251  27.9639   C.2       1 RES1   0.0000
   362 H3      21.1951  41.8866  27.6979   H         1 RES1   0.0000
   363 C4      21.1570  39.2381  29.5113   C.2       1 RES1   0.0000
   364 H4      21.5129  38.8993  30.3137   H         1 RES1   0.0000
   365 C5      20.1195  38.5228  28.7735   C.2       1 RES1   0.0000
   366 C6      19.5494  37.2809  29.3436   C.1       1 RES1   0.0000
   367 C7      19.2052  36.2053  29.6878   C.1       1 RES1   0.0000
   368 C8      18.6576  35.0856  30.2354   C.1       1 RES1   0.0000
   369 C9      18.3055  34.0051  30.5875   C.1       1 RES1   0.0000
   370 C10     17.7628  32.7925  31.1302   C.2       1 RES1   0.0000
   371 C11     18.2909  32.2987  32.2987   C.2       1 RES1   0.0000
   372 H11     18.9900  32.7436  32.7436   H         1 RES1   0.0000
   373 O1      19.6452  25.8194  42.1702   O.co2     1 RES1   0.0000
   374 O2      18.0606  25.8551  40.5675   O.co2     1 RES1   0.0000
   375 C1      19.0751  26.2375  41.1870   C.2       1 RES1   0.0000
   376 C2      19.8779  27.3273  40.3568   C.2       1 RES1   0.0000
   377 C3      20.9291  27.9639  41.0251   C.2       1 RES1   0.0000
   378 H3      21.1951  27.6979  41.8866   H         1 RES1   0.0000
   379 C4      19.3817  27.7360  39.2381   C.2       1 RES1   0.0000
   380 H4      18.5793  27.3801  38.8993   H         1 RES1   0.0000
   381 C5      20.1195  28.7735  38.5228   C.2       1 RES1   0.0000
   382 C6      19.5494  29.3436  37.2809   C.1       1 RES1   0.0000
   383 C7      19.2052  29.6878  36.2053   C.1       1 RES1   0.0000
   384 C8      18.6576  30.2354  35.0856   C.1       1 RES1   0.0000
   385 C9      18.3055  30.5875  34.0051   C.1       1 RES1   0.0000
   386 C10     17.7628  31.1302  32.7925   C.2       1 RES1   0.0000
   387 C11     16.5943  30.6021  32.2987   C.2       1 RES1   0.0000
   388 H11     16.1494  29.9030  32.7436   H         1 RES1   0.0000
   389 O1       6.7228  29.2478  25.8194   O.co2     1 RES1   0.0000
   390 O2       8.3255  30.8324  25.8551   O.co2     1 RES1   0.0000
   391 C1       7.7060  29.8179  26.2375   C.2       1 RES1   0.0000
   392 C2       8.5362  29.0151  27.3273   C.2       1 RES1   0.0000
   393 C3       7.8679  27.9639  27.9639   C.2       1 RES1   0.0000
   394 H3       7.0064  27.6979  27.6979   H         1 RES1   0.0000
   395 C4       9.6549  29.5113  27.7360   C.2       1 RES1   0.0000
   396 H4       9.9937  30.3137  27.3801   H         1 RES1   0.0000
   397 C5      10.3702  28.7735  28.7735   C.2       1 RES1   0.0000
   398 C6      11.6121  29.3436  29.3436   C.1       1 RES1   0.0000
   399 C7      12.6877  29.6878  29.6878   C.1       1 RES1   0.0000
   400 C8      13.8074  30.2354  30.2354   C.1       1 RES1   0.0000
   401 C9      14.8879  30.5875  30.5875   C.1       1 RES1   0.0000
   402 C10     16.1005  31.1302  31.1302   C.2       1 RES1   0.0000
   403 C11     16.5943  32.2987  30.6021   C.2       1 RES1   0.0000
   404 H11     16.1494  32.7436  29.9030   H         1 RES1   0.0000
   405 C1      19.0751  41.1870  26.2375   C.2       1 RES1   0.0000
   406 C2      19.8779  40.3568  27.3273   C.2       1 RES1   0.0000
   407 C4      19.3817  39.2381  27.7360   C.2       1 RES1   0.0000
   408 H4      18.5793  38.8993  27.3801   H         1 RES1   0.0000
   409 O1      23.0736  29.2478  42.1702   O.co2     1 RES1   0.0000
   410 O2      23.0379  30.8324  40.5675   O.co2     1 RES1   0.0000
   411 C1      22.6555  29.8179  41.1870   C.2       1 RES1   0.0000
   412 C2      21.5657  29.0151  40.3568   C.2       1 RES1   0.0000
   413 C4      21.1570  29.5113  39.2381   C.2       1 RES1   0.0000
   414 H4      21.5129  30.3137  38.8993   H         1 RES1   0.0000
   415 O1       6.7228  25.8194  29.2478   O.co2     1 RES1   0.0000
   416 O2       8.3255  25.8551  30.8324   O.co2     1 RES1   0.0000
   417 C1       7.7060  26.2375  29.8179   C.2       1 RES1   0.0000
   418 C2       8.5362  27.3273  29.0151   C.2       1 RES1   0.0000
   419 C4       9.6549  27.7360  29.5113   C.2       1 RES1   0.0000
   420 H4       9.9937  27.3801  30.3137   H         1 RES1   0.0000
   421 Cu1     18.8361  24.4465  43.2826   Cu        1 RES1   0.0000
   422 Cu2     16.9561  24.4465  41.4026   Cu        1 RES1   0.0000
   423 O3      20.4060  24.4465  44.8525   O.2       1 RES1   0.0000
   424 O4      15.4238  24.4465  39.8703   O.2       1 RES1   0.0000
   425 Cu1      5.6104  24.4465  30.0569   Cu        1 RES1   0.0000
   426 Cu1     24.4465  30.0569  43.2826   Cu        1 RES1   0.0000
   427 Cu2      7.4904  24.4465  31.9369   Cu        1 RES1   0.0000
   428 Cu2     24.4465  31.9369  41.4026   Cu        1 RES1   0.0000
   429 O1      25.8194  44.0917  31.1693   O.co2     1 RES1   0.0000
   430 O1      17.7237  23.0736  44.0917   O.co2     1 RES1   0.0000
   431 O1      25.8194  42.1702  29.2478   O.co2     1 RES1   0.0000
   432 O1      19.6452  23.0736  42.1702   O.co2     1 RES1   0.0000
   433 O1      23.0736  44.0917  31.1693   O.co2     1 RES1   0.0000
   434 O1      17.7237  25.8194  44.0917   O.co2     1 RES1   0.0000
   435 O2      25.8551  42.5071  32.7720   O.co2     1 RES1   0.0000
   436 O2      16.1210  23.0379  42.5071   O.co2     1 RES1   0.0000
   437 O2      25.8551  40.5675  30.8324   O.co2     1 RES1   0.0000
   438 O2      18.0606  23.0379  40.5675   O.co2     1 RES1   0.0000
   439 O2      23.0379  42.5071  32.7720   O.co2     1 RES1   0.0000
   440 O2      16.1210  25.8551  42.5071   O.co2     1 RES1   0.0000
   441 Cu1     24.4465  18.8361  43.2826   Cu        1 RES1   0.0000
   442 Cu2     24.4465  16.9561  41.4026   Cu        1 RES1   0.0000
   443 O1      23.0736  19.6452  42.1702   O.co2     1 RES1   0.0000
   444 O2      23.0379  18.0606  40.5675   O.co2     1 RES1   0.0000
   445 O3      24.4465  20.4060  44.8525   O.2       1 RES1   0.0000
   446 O4      24.4465  15.4238  39.8703   O.2       1 RES1   0.0000
   447 C1      22.6555  19.0751  41.1870   C.2       1 RES1   0.0000
   448 C2      21.5657  19.8779  40.3568   C.2       1 RES1   0.0000
   449 C3      20.9291  20.9291  41.0251   C.2       1 RES1   0.0000
   450 H3      21.1951  21.1951  41.8866   H         1 RES1   0.0000
   451 C4      21.1570  19.3817  39.2381   C.2       1 RES1   0.0000
   452 H4      21.5129  18.5793  38.8993   H         1 RES1   0.0000
   453 C5      20.1195  20.1195  38.5228   C.2       1 RES1   0.0000
   454 C6      19.5494  19.5494  37.2809   C.1       1 RES1   0.0000
   455 C7      19.2052  19.2052  36.2053   C.1       1 RES1   0.0000
   456 C8      18.6576  18.6576  35.0856   C.1       1 RES1   0.0000
   457 C9      18.3055  18.3055  34.0051   C.1       1 RES1   0.0000
   458 C10     17.7628  17.7628  32.7925   C.2       1 RES1   0.0000
   459 C11     18.2909  16.5943  32.2987   C.2       1 RES1   0.0000
   460 H11     18.9900  16.1494  32.7436   H         1 RES1   0.0000
   461 O1      19.6452   6.7228  25.8194   O.co2     1 RES1   0.0000
   462 O2      18.0606   8.3255  25.8551   O.co2     1 RES1   0.0000
   463 C1      19.0751   7.7060  26.2375   C.2       1 RES1   0.0000
   464 C2      19.8779   8.5362  27.3273   C.2       1 RES1   0.0000
   465 C3      20.9291   7.8679  27.9639   C.2       1 RES1   0.0000
   466 H3      21.1951   7.0064  27.6979   H         1 RES1   0.0000
   467 C4      19.3817   9.6549  27.7360   C.2       1 RES1   0.0000
   468 H4      18.5793   9.9937  27.3801   H         1 RES1   0.0000
   469 C5      20.1195  10.3702  28.7735   C.2       1 RES1   0.0000
   470 C6      19.5494  11.6121  29.3436   C.1       1 RES1   0.0000
   471 C7      19.2052  12.6877  29.6878   C.1       1 RES1   0.0000
   472 C8      18.6576  13.8074  30.2354   C.1       1 RES1   0.0000
   473 C9      18.3055  14.8879  30.5875   C.1       1 RES1   0.0000
   474 C10     17.7628  16.1005  31.1302   C.2       1 RES1   0.0000
   475 C11     16.5943  16.5943  30.6021   C.2       1 RES1   0.0000
   476 H11     16.1494  16.1494  29.9030   H         1 RES1   0.0000
   477 O1       6.7228  23.0736  29.2478   O.co2     1 RES1   0.0000
   478 O2       8.3255  23.0379  30.8324   O.co2     1 RES1   0.0000
   479 C1       7.7060  22.6555  29.8179   C.2       1 RES1   0.0000
   480 C2       8.5362  21.5657  29.0151   C.2       1 RES1   0.0000
   481 C3       7.8679  20.9291  27.9639   C.2       1 RES1   0.0000
   482 H3       7.0064  21.1951  27.6979   H         1 RES1   0.0000
   483 C4       9.6549  21.1570  29.5113   C.2       1 RES1   0.0000
   484 H4       9.9937  21.5129  30.3137   H         1 RES1   0.0000
   485 C5      10.3702  20.1195  28.7735   C.2       1 RES1   0.0000
   486 C6      11.6121  19.5494  29.3436   C.1       1 RES1   0.0000
   487 C7      12.6877  19.2052  29.6878   C.1       1 RES1   0.0000
   488 C8      13.8074  18.6576  30.2354   C.1       1 RES1   0.0000
   489 C9      14.8879  18.3055  30.5875   C.1       1 RES1   0.0000
   490 C10     16.1005  17.7628  31.1302   C.2       1 RES1   0.0000
   491 C11     16.5943  18.2909  32.2987   C.2       1 RES1   0.0000
   492 H11     16.1494  18.9900  32.7436   H         1 RES1   0.0000
   493 C1      19.0751  22.6555  41.1870   C.2       1 RES1   0.0000
   494 C2      19.8779  21.5657  40.3568   C.2       1 RES1   0.0000
   495 C4      19.3817  21.1570  39.2381   C.2       1 RES1   0.0000
   496 H4      18.5793  21.5129  38.8993   H         1 RES1   0.0000
   497 O1      23.0736   6.7228  29.2478   O.co2     1 RES1   0.0000
   498 O2      23.0379   8.3255  30.8324   O.co2     1 RES1   0.0000
   499 C1      22.6555   7.7060  29.8179   C.2       1 RES1   0.0000
   500 C2      21.5657   8.5362  29.0151   C.2       1 RES1   0.0000
   501 C4      21.1570   9.6549  29.5113   C.2       1 RES1   0.0000
   502 H4      21.5129   9.9937  30.3137   H         1 RES1   0.0000
   503 C1       7.7060  19.0751  26.2375   C.2       1 RES1   0.0000
   504 C2       8.5362  19.8779  27.3273   C.2       1 RES1   0.0000
   505 C4       9.6549  19.3817  27.7360   C.2       1 RES1   0.0000
   506 H4       9.9937  18.5793  27.3801   H         1 RES1   0.0000
   507 O3      20.4060   4.0405  24.4465   O.2       1 RES1   0.0000
   508 O4      15.4238   9.0227  24.4465   O.2       1 RES1   0.0000
   509 Cu1     24.4465   5.6104  30.0569   Cu        1 RES1   0.0000
   510 Cu2     24.4465   7.4904  31.9369   Cu        1 RES1   0.0000
   511 O1      25.8194  17.7237  44.0917   O.co2     1 RES1   0.0000
   512 O1      17.7237   4.8013  23.0736   O.co2     1 RES1   0.0000
   513 O1      25.8194  19.6452  42.1702   O.co2     1 RES1   0.0000
   514 O1      23.0736  17.7237  44.0917   O.co2     1 RES1   0.0000
   515 O1      17.7237   4.8013  25.8194   O.co2     1 RES1   0.0000
   516 O2      25.8551  16.1210  42.5071   O.co2     1 RES1   0.0000
   517 O2      16.1210   6.3859  23.0379   O.co2     1 RES1   0.0000
   518 O2      25.8551  18.0606  40.5675   O.co2     1 RES1   0.0000
   519 O2      23.0379  16.1210  42.5071   O.co2     1 RES1   0.0000
   520 O2      16.1210   6.3859  25.8551   O.co2     1 RES1   0.0000
   521 O3      24.4465   4.0405  20.4060   O.2       1 RES1   0.0000
   522 O4      24.4465   9.0227  15.4238   O.2       1 RES1   0.0000
   523 O1      25.8194   4.8013  17.7237   O.co2     1 RES1   0.0000
   524 O1      23.0736   4.8013  17.7237   O.co2     1 RES1   0.0000
   525 O2      25.8551   6.3859  16.1210   O.co2     1 RES1   0.0000
   526 O2      23.0379   6.3859  16.1210   O.co2     1 RES1   0.0000
   527 O3       4.0405  28.4870  24.4465   O.2       1 RES1   0.0000
   528 O4       9.0227  33.4692  24.4465   O.2       1 RES1   0.0000
   529 O3       4.0405  24.4465  28.4870   O.2       1 RES1   0.0000
   530 O4       9.0227  24.4465  33.4692   O.2       1 RES1   0.0000
   531 O1       4.8013  31.1693  23.0736   O.co2     1 RES1   0.0000
   532 O1       4.8013  25.8194  31.1693   O.co2     1 RES1   0.0000
   533 O1       4.8013  31.1693  25.8194   O.co2     1 RES1   0.0000
   534 O1       4.8013  23.0736  31.1693   O.co2     1 RES1   0.0000
   535 O2       6.3859  32.7720  23.0379   O.co2     1 RES1   0.0000
   536 O2       6.3859  25.8551  32.7720   O.co2     1 RES1   0.0000
   537 O2       6.3859  32.7720  25.8551   O.co2     1 RES1   0.0000
   538 O2       6.3859  23.0379  32.7720   O.co2     1 RES1   0.0000
   539 O1      25.8194  29.2478  42.1702   O.co2     1 RES1   0.0000
   540 O2      25.8551  30.8324  40.5675   O.co2     1 RES1   0.0000
   541 O3      24.4465  28.4870  44.8525   O.2       1 RES1   0.0000
   542 O4      24.4465  33.4692  39.8703   O.2       1 RES1   0.0000
   543 C1      26.2375  29.8179  41.1870   C.2       1 RES1   0.0000
   544 C2      27.3273  29.0151  40.3568   C.2       1 RES1   0.0000
   545 C3      27.9639  27.9639  41.0251   C.2       1 RES1   0.0000
   546 H3      27.6979  27.6979  41.8866   H         1 RES1   0.0000
   547 C4      27.7360  29.5113  39.2381   C.2       1 RES1   0.0000
   548 H4      27.3801  30.3137  38.8993   H         1 RES1   0.0000
   549 C5      28.7735  28.7735  38.5228   C.2       1 RES1   0.0000
   550 C6      29.3436  29.3436  37.2809   C.1       1 RES1   0.0000
   551 C7      29.6878  29.6878  36.2053   C.1       1 RES1   0.0000
   552 C8      30.2354  30.2354  35.0856   C.1       1 RES1   0.0000
   553 C9      30.5875  30.5875  34.0051   C.1       1 RES1   0.0000
   554 C10     31.1302  31.1302  32.7925   C.2       1 RES1   0.0000
   555 C11     30.6021  32.2987  32.2987   C.2       1 RES1   0.0000
   556 H11     29.9030  32.7436  32.7436   H         1 RES1   0.0000
   557 O1      29.2478  42.1702  25.8194   O.co2     1 RES1   0.0000
   558 O2      30.8324  40.5675  25.8551   O.co2     1 RES1   0.0000
   559 C1      29.8179  41.1870  26.2375   C.2       1 RES1   0.0000
   560 C2      29.0151  40.3568  27.3273   C.2       1 RES1   0.0000
   561 C3      27.9639  41.0251  27.9639   C.2       1 RES1   0.0000
   562 H3      27.6979  41.8866  27.6979   H         1 RES1   0.0000
   563 C4      29.5113  39.2381  27.7360   C.2       1 RES1   0.0000
   564 H4      30.3137  38.8993  27.3801   H         1 RES1   0.0000
   565 C5      28.7735  38.5228  28.7735   C.2       1 RES1   0.0000
   566 C6      29.3436  37.2809  29.3436   C.1       1 RES1   0.0000
   567 C7      29.6878  36.2053  29.6878   C.1       1 RES1   0.0000
   568 C8      30.2354  35.0856  30.2354   C.1       1 RES1   0.0000
   569 C9      30.5875  34.0051  30.5875   C.1       1 RES1   0.0000
   570 C10     31.1302  32.7925  31.1302   C.2       1 RES1   0.0000
   571 C11     32.2987  32.2987  30.6021   C.2       1 RES1   0.0000
   572 H11     32.7436  32.7436  29.9030   H         1 RES1   0.0000
   573 O1      42.1702  25.8194  29.2478   O.co2     1 RES1   0.0000
   574 O2      40.5675  25.8551  30.8324   O.co2     1 RES1   0.0000
   575 C1      41.1870  26.2375  29.8179   C.2       1 RES1   0.0000
   576 C2      40.3568  27.3273  29.0151   C.2       1 RES1   0.0000
   577 C3      41.0251  27.9639  27.9639   C.2       1 RES1   0.0000
   578 H3      41.8866  27.6979  27.6979   H         1 RES1   0.0000
   579 C4      39.2381  27.7360  29.5113   C.2       1 RES1   0.0000
   580 H4      38.8993  27.3801  30.3137   H         1 RES1   0.0000
   581 C5      38.5228  28.7735  28.7735   C.2       1 RES1   0.0000
   582 C6      37.2809  29.3436  29.3436   C.1       1 RES1   0.0000
   583 C7      36.2053  29.6878  29.6878   C.1       1 RES1   0.0000
   584 C8      35.0856  30.2354  30.2354   C.1       1 RES1   0.0000
   585 C9      34.0051  30.5875  30.5875   C.1       1 RES1   0.0000
   586 C10     32.7925  31.1302  31.1302   C.2       1 RES1   0.0000
   587 C11     32.2987  30.6021  32.2987   C.2       1 RES1   0.0000
   588 H11     32.7436  29.9030  32.7436   H         1 RES1   0.0000
   589 O1      29.2478  25.8194  42.1702   O.co2     1 RES1   0.0000
   590 O2      30.8324  25.8551  40.5675   O.co2     1 RES1   0.0000
   591 C1      29.8179  26.2375  41.1870   C.2       1 RES1   0.0000
   592 C2      29.0151  27.3273  40.3568   C.2       1 RES1   0.0000
   593 C4      29.5113  27.7360  39.2381   C.2       1 RES1   0.0000
   594 H4      30.3137  27.3801  38.8993   H         1 RES1   0.0000
   595 C1      26.2375  41.1870  29.8179   C.2       1 RES1   0.0000
   596 C2      27.3273  40.3568  29.0151   C.2       1 RES1   0.0000
   597 C4      27.7360  39.2381  29.5113   C.2       1 RES1   0.0000
   598 H4      27.3801  38.8993  30.3137   H         1 RES1   0.0000
   599 C1      41.1870  29.8179  26.2375   C.2       1 RES1   0.0000
   600 C2      40.3568  29.0151  27.3273   C.2       1 RES1   0.0000
   601 C4      39.2381  29.5113  27.7360   C.2       1 RES1   0.0000
   602 H4      38.8993  30.3137  27.3801   H         1 RES1   0.0000
   603 Cu1     30.0569  24.4465  43.2826   Cu        1 RES1   0.0000
   604 Cu2     31.9369  24.4465  41.4026   Cu        1 RES1   0.0000
   605 O1      29.2478  23.0736  42.1702   O.co2     1 RES1   0.0000
   606 O2      30.8324  23.0379  40.5675   O.co2     1 RES1   0.0000
   607 O3      28.4870  24.4465  44.8525   O.2       1 RES1   0.0000
   608 O4      33.4692  24.4465  39.8703   O.2       1 RES1   0.0000
   609 C1      29.8179  22.6555  41.1870   C.2       1 RES1   0.0000
   610 C2      29.0151  21.5657  40.3568   C.2       1 RES1   0.0000
   611 C3      27.9639  20.9291  41.0251   C.2       1 RES1   0.0000
   612 H3      27.6979  21.1951  41.8866   H         1 RES1   0.0000
   613 C4      29.5113  21.1570  39.2381   C.2       1 RES1   0.0000
   614 H4      30.3137  21.5129  38.8993   H         1 RES1   0.0000
   615 C5      28.7735  20.1195  38.5228   C.2       1 RES1   0.0000
   616 C6      29.3436  19.5494  37.2809   C.1       1 RES1   0.0000
   617 C7      29.6878  19.2052  36.2053   C.1       1 RES1   0.0000
   618 C8      30.2354  18.6576  35.0856   C.1       1 RES1   0.0000
   619 C9      30.5875  18.3055  34.0051   C.1       1 RES1   0.0000
   620 C10     31.1302  17.7628  32.7925   C.2       1 RES1   0.0000
   621 C11     32.2987  18.2909  32.2987   C.2       1 RES1   0.0000
   622 H11     32.7436  18.9900  32.7436   H         1 RES1   0.0000
   623 O1      42.1702  19.6452  25.8194   O.co2     1 RES1   0.0000
   624 O2      40.5675  18.0606  25.8551   O.co2     1 RES1   0.0000
   625 C1      41.1870  19.0751  26.2375   C.2       1 RES1   0.0000
   626 C2      40.3568  19.8779  27.3273   C.2       1 RES1   0.0000
   627 C3      41.0251  20.9291  27.9639   C.2       1 RES1   0.0000
   628 H3      41.8866  21.1951  27.6979   H         1 RES1   0.0000
   629 C4      39.2381  19.3817  27.7360   C.2       1 RES1   0.0000
   630 H4      38.8993  18.5793  27.3801   H         1 RES1   0.0000
   631 C5      38.5228  20.1195  28.7735   C.2       1 RES1   0.0000
   632 C6      37.2809  19.5494  29.3436   C.1       1 RES1   0.0000
   633 C7      36.2053  19.2052  29.6878   C.1       1 RES1   0.0000
   634 C8      35.0856  18.6576  30.2354   C.1       1 RES1   0.0000
   635 C9      34.0051  18.3055  30.5875   C.1       1 RES1   0.0000
   636 C10     32.7925  17.7628  31.1302   C.2       1 RES1   0.0000
   637 C11     32.2987  16.5943  30.6021   C.2       1 RES1   0.0000
   638 H11     32.7436  16.1494  29.9030   H         1 RES1   0.0000
   639 O1      25.8194   6.7228  29.2478   O.co2     1 RES1   0.0000
   640 O2      25.8551   8.3255  30.8324   O.co2     1 RES1   0.0000
   641 C1      26.2375   7.7060  29.8179   C.2       1 RES1   0.0000
   642 C2      27.3273   8.5362  29.0151   C.2       1 RES1   0.0000
   643 C3      27.9639   7.8679  27.9639   C.2       1 RES1   0.0000
   644 H3      27.6979   7.0064  27.6979   H         1 RES1   0.0000
   645 C4      27.7360   9.6549  29.5113   C.2       1 RES1   0.0000
   646 H4      27.3801   9.9937  30.3137   H         1 RES1   0.0000
   647 C5      28.7735  10.3702  28.7735   C.2       1 RES1   0.0000
   648 C6      29.3436  11.6121  29.3436   C.1       1 RES1   0.0000
   649 C7      29.6878  12.6877  29.6878   C.1       1 RES1   0.0000
   650 C8      30.2354  13.8074  30.2354   C.1       1 RES1   0.0000
   651 C9      30.5875  14.8879  30.5875   C.1       1 RES1   0.0000
   652 C10     31.1302  16.1005  31.1302   C.2       1 RES1   0.0000
   653 C11     30.6021  16.5943  32.2987   C.2       1 RES1   0.0000
   654 H11     29.9030  16.1494  32.7436   H         1 RES1   0.0000
   655 C1      26.2375  19.0751  41.1870   C.2       1 RES1   0.0000
   656 C2      27.3273  19.8779  40.3568   C.2       1 RES1   0.0000
   657 C4      27.7360  19.3817  39.2381   C.2       1 RES1   0.0000
   658 H4      27.3801  18.5793  38.8993   H         1 RES1   0.0000
   659 O1      42.1702  23.0736  29.2478   O.co2     1 RES1   0.0000
   660 O2      40.5675  23.0379  30.8324   O.co2     1 RES1   0.0000
   661 C1      41.1870  22.6555  29.8179   C.2       1 RES1   0.0000
   662 C2      40.3568  21.5657  29.0151   C.2       1 RES1   0.0000
   663 C4      39.2381  21.1570  29.5113   C.2       1 RES1   0.0000
   664 H4      38.8993  21.5129  30.3137   H         1 RES1   0.0000
   665 C1      29.8179   7.7060  26.2375   C.2       1 RES1   0.0000
   666 C2      29.0151   8.5362  27.3273   C.2       1 RES1   0.0000
   667 C4      29.5113   9.6549  27.7360   C.2       1 RES1   0.0000
   668 H4      30.3137   9.9937  27.3801   H         1 RES1   0.0000
   669 O3      28.4870  44.8525  24.4465   O.2       1 RES1   0.0000
   670 O4      33.4692  39.8703  24.4465   O.2       1 RES1   0.0000
   671 Cu1     43.2826  24.4465  30.0569   Cu        1 RES1   0.0000
   672 Cu2     41.4026  24.4465  31.9369   Cu        1 RES1   0.0000
   673 O1      23.0736  31.1693  44.0917   O.co2     1 RES1   0.0000
   674 O1      31.1693  25.8194  44.0917   O.co2     1 RES1   0.0000
   675 O1      31.1693  44.0917  23.0736   O.co2     1 RES1   0.0000
   676 O1      25.8194  31.1693  44.0917   O.co2     1 RES1   0.0000
   677 O1      31.1693  23.0736  44.0917   O.co2     1 RES1   0.0000
   678 O1      31.1693  44.0917  25.8194   O.co2     1 RES1   0.0000
   679 O2      23.0379  32.7720  42.5071   O.co2     1 RES1   0.0000
   680 O2      32.7720  25.8551  42.5071   O.co2     1 RES1   0.0000
   681 O2      32.7720  42.5071  23.0379   O.co2     1 RES1   0.0000
   682 O2      25.8551  32.7720  42.5071   O.co2     1 RES1   0.0000
   683 O2      32.7720  23.0379  42.5071   O.co2     1 RES1   0.0000
   684 O2      32.7720  42.5071  25.8551   O.co2     1 RES1   0.0000
   685 O3      44.8525  24.4465  20.4060   O.2       1 RES1   0.0000
   686 O4      39.8703  24.4465  15.4238   O.2       1 RES1   0.0000
   687 O3      24.4465  44.8525  20.4060   O.2       1 RES1   0.0000
   688 O4      24.4465  39.8703  15.4238   O.2       1 RES1   0.0000
   689 O1      44.0917  25.8194  17.7237   O.co2     1 RES1   0.0000
   690 O1      23.0736  44.0917  17.7237   O.co2     1 RES1   0.0000
   691 O1      44.0917  23.0736  17.7237   O.co2     1 RES1   0.0000
   692 O1      25.8194  44.0917  17.7237   O.co2     1 RES1   0.0000
   693 O2      42.5071  25.8551  16.1210   O.co2     1 RES1   0.0000
   694 O2      23.0379  42.5071  16.1210   O.co2     1 RES1   0.0000
   695 O2      42.5071  23.0379  16.1210   O.co2     1 RES1   0.0000
   696 O2      25.8551  42.5071  16.1210   O.co2     1 RES1   0.0000
   697 O3       4.0405  24.4465  20.4060   O.2       1 RES1   0.0000
   698 O4       9.0227  24.4465  15.4238   O.2       1 RES1   0.0000
   699 O1       4.8013  23.0736  17.7237   O.co2     1 RES1   0.0000
   700 O1       4.8013  25.8194  17.7237   O.co2     1 RES1   0.0000
   701 O2       6.3859  23.0379  16.1210   O.co2     1 RES1   0.0000
   702 O2       6.3859  25.8551  16.1210   O.co2     1 RES1   0.0000
   703 O3      24.4465   4.0405  28.4870   O.2       1 RES1   0.0000
   704 O4      24.4465   9.0227  33.4692   O.2       1 RES1   0.0000
   705 O1      23.0736   4.8013  31.1693   O.co2     1 RES1   0.0000
   706 O1      25.8194   4.8013  31.1693   O.co2     1 RES1   0.0000
   707 O2      23.0379   6.3859  32.7720   O.co2     1 RES1   0.0000
   708 O2      25.8551   6.3859  32.7720   O.co2     1 RES1   0.0000
   709 O3      44.8525  24.4465  28.4870   O.2       1 RES1   0.0000
   710 O4      39.8703  24.4465  33.4692   O.2       1 RES1   0.0000
   711 O1      44.0917  23.0736  31.1693   O.co2     1 RES1   0.0000
   712 O1      44.0917  25.8194  31.1693   O.co2     1 RES1   0.0000
   713 O2      42.5071  23.0379  32.7720   O.co2     1 RES1   0.0000
   714 O2      42.5071  25.8551  32.7720   O.co2     1 RES1   0.0000
   715 O3      44.8525  20.4060  24.4465   O.2       1 RES1   0.0000
   716 O4      39.8703  15.4238  24.4465   O.2       1 RES1   0.0000
   717 O1      44.0917  17.7237  23.0736   O.co2     1 RES1   0.0000
   718 O1      44.0917  17.7237  25.8194   O.co2     1 RES1   0.0000
   719 O2      42.5071  16.1210  23.0379   O.co2     1 RES1   0.0000
   720 O2      42.5071  16.1210  25.8551   O.co2     1 RES1   0.0000
   721 Cu1     18.8361  18.8361   0.0000   Cu        1 RES1   0.0000
   722 Cu2     16.9561  16.9561   0.0000   Cu        1 RES1   0.0000
   723 O3      20.4060  20.4060   0.0000   O.2       1 RES1   0.0000
   724 O4      15.4238  15.4238   0.0000   O.2       1 RES1   0.0000
   725 Cu1      5.6104   5.6104   0.0000   Cu        1 RES1   0.0000
   726 Cu2      7.4904   7.4904   0.0000   Cu        1 RES1   0.0000
   727 O1      17.7237  19.6452   1.3729   O.co2     1 RES1   0.0000
   728 O1      19.6452  17.7237   1.3729   O.co2     1 RES1   0.0000
   729 O2      16.1210  18.0606   1.4086   O.co2     1 RES1   0.0000
   730 O2      18.0606  16.1210   1.4086   O.co2     1 RES1   0.0000
   731 C1      22.6555   5.3714  32.1525   C.2       1 RES1   0.0000
   732 C2      21.5657   4.5686  32.9827   C.2       1 RES1   0.0000
   733 C3      20.9291   3.5174  32.3144   C.2       1 RES1   0.0000
   734 H3      21.1951   3.2514  31.4529   H         1 RES1   0.0000
   735 C4      21.1570   5.0648  34.1014   C.2       1 RES1   0.0000
   736 H4      21.5129   5.8672  34.4402   H         1 RES1   0.0000
   737 C5      20.1195   4.3270  34.8167   C.2       1 RES1   0.0000
   738 C6      19.5494   4.8971  36.0586   C.1       1 RES1   0.0000
   739 C7      19.2052   5.2413  37.1342   C.1       1 RES1   0.0000
   740 C8      18.6576   5.7889  38.2539   C.1       1 RES1   0.0000
   741 C9      18.3055   6.1410  39.3344   C.1       1 RES1   0.0000
   742 C10     17.7628   6.6837  40.5470   C.2       1 RES1   0.0000
   743 C11     18.2909   7.8522  41.0408   C.2       1 RES1   0.0000
   744 H11     18.9900   8.2971  40.5959   H         1 RES1   0.0000
   745 O1      19.6452  17.7237  47.5201   O.co2     1 RES1   0.0000
   746 O2      18.0606  16.1210  47.4844   O.co2     1 RES1   0.0000
   747 C1      19.0751  16.7405  47.1020   C.2       1 RES1   0.0000
   748 C2      19.8779  15.9103  46.0122   C.2       1 RES1   0.0000
   749 C3      20.9291  16.5786  45.3756   C.2       1 RES1   0.0000
   750 H3      21.1951  17.4401  45.6416   H         1 RES1   0.0000
   751 C4      19.3817  14.7916  45.6035   C.2       1 RES1   0.0000
   752 H4      18.5793  14.4528  45.9594   H         1 RES1   0.0000
   753 C5      20.1195  14.0763  44.5660   C.2       1 RES1   0.0000
   754 C6      19.5494  12.8344  43.9959   C.1       1 RES1   0.0000
   755 C7      19.2052  11.7588  43.6517   C.1       1 RES1   0.0000
   756 C8      18.6576  10.6391  43.1041   C.1       1 RES1   0.0000
   757 C9      18.3055   9.5586  42.7520   C.1       1 RES1   0.0000
   758 C10     17.7628   8.3460  42.2093   C.2       1 RES1   0.0000
   759 C11     16.5943   7.8522  42.7374   C.2       1 RES1   0.0000
   760 H11     16.1494   8.2971  43.4365   H         1 RES1   0.0000
   761 O1       6.7228   1.3729  44.0917   O.co2     1 RES1   0.0000
   762 O2       8.3255   1.4086  42.5071   O.co2     1 RES1   0.0000
   763 C1       7.7060   1.7910  43.5216   C.2       1 RES1   0.0000
   764 C2       8.5362   2.8808  44.3244   C.2       1 RES1   0.0000
   765 C3       7.8679   3.5174  45.3756   C.2       1 RES1   0.0000
   766 H3       7.0064   3.2514  45.6416   H         1 RES1   0.0000
   767 C4       9.6549   3.2895  43.8282   C.2       1 RES1   0.0000
   768 H4       9.9937   2.9336  43.0258   H         1 RES1   0.0000
   769 C5      10.3702   4.3270  44.5660   C.2       1 RES1   0.0000
   770 C6      11.6121   4.8971  43.9959   C.1       1 RES1   0.0000
   771 C7      12.6877   5.2413  43.6517   C.1       1 RES1   0.0000
   772 C8      13.8074   5.7889  43.1041   C.1       1 RES1   0.0000
   773 C9      14.8879   6.1410  42.7520   C.1       1 RES1   0.0000
   774 C10     16.1005   6.6837  42.2093   C.2       1 RES1   0.0000
   775 C11     16.5943   6.1556  41.0408   C.2       1 RES1   0.0000
   776 H11     16.1494   5.4565  40.5959   H         1 RES1   0.0000
   777 O1      19.6452   1.3729  31.1693   O.co2     1 RES1   0.0000
   778 O2      18.0606   1.4086  32.7720   O.co2     1 RES1   0.0000
   779 C1      19.0751   1.7910  32.1525   C.2       1 RES1   0.0000
   780 C2      19.8779   2.8808  32.9827   C.2       1 RES1   0.0000
   781 C4      19.3817   3.2895  34.1014   C.2       1 RES1   0.0000
   782 H4      18.5793   2.9336  34.4402   H         1 RES1   0.0000
   783 C1      22.6555  16.7405  43.5216   C.2       1 RES1   0.0000
   784 C2      21.5657  15.9103  44.3244   C.2       1 RES1   0.0000
   785 C4      21.1570  14.7916  43.8282   C.2       1 RES1   0.0000
   786 H4      21.5129  14.4528  43.0258   H         1 RES1   0.0000
   787 O1       6.7228   4.8013  47.5201   O.co2     1 RES1   0.0000
   788 O2       8.3255   6.3859  47.4844   O.co2     1 RES1   0.0000
   789 C1       7.7060   5.3714  47.1020   C.2       1 RES1   0.0000
   790 C2       8.5362   4.5686  46.0122   C.2       1 RES1   0.0000
   791 C4       9.6549   5.0648  45.6035   C.2       1 RES1   0.0000
   792 H4       9.9937   5.8672  45.9594   H         1 RES1   0.0000
   793 Cu1     18.8361   0.0000  30.0569   Cu        1 RES1   0.0000
   794 Cu2     16.9561   0.0000  31.9369   Cu        1 RES1   0.0000
   795 O3      20.4060   0.0000  28.4870   O.2       1 RES1   0.0000
   796 O4      15.4238   0.0000  33.4692   O.2       1 RES1   0.0000
   797 Cu1     18.8361  18.8361  48.8930   Cu        1 RES1   0.0000
   798 Cu2     16.9561  16.9561  48.8930   Cu        1 RES1   0.0000
   799 O3      20.4060  20.4060  48.8930   O.2       1 RES1   0.0000
   800 O4      15.4238  15.4238  48.8930   O.2       1 RES1   0.0000
   801 Cu1      5.6104   5.6104  48.8930   Cu        1 RES1   0.0000
   802 Cu1      5.6104   0.0000  43.2826   Cu        1 RES1   0.0000
   803 Cu2      7.4904   7.4904  48.8930   Cu        1 RES1   0.0000
   804 Cu2      7.4904   0.0000  41.4026   Cu        1 RES1   0.0000
   805 O1      17.7237   1.3729  29.2478   O.co2     1 RES1   0.0000
   806 O1      17.7237  19.6452  47.5201   O.co2     1 RES1   0.0000
   807 O2      16.1210   1.4086  30.8324   O.co2     1 RES1   0.0000
   808 O2      16.1210  18.0606  47.4844   O.co2     1 RES1   0.0000
   809 Cu1     18.8361  30.0569   0.0000   Cu        1 RES1   0.0000
   810 Cu1      5.6104  43.2826   0.0000   Cu        1 RES1   0.0000
   811 Cu2     16.9561  31.9369   0.0000   Cu        1 RES1   0.0000
   812 Cu2      7.4904  41.4026   0.0000   Cu        1 RES1   0.0000
   813 Cu1     18.8361  48.8930  30.0569   Cu        1 RES1   0.0000
   814 Cu2     16.9561  48.8930  31.9369   Cu        1 RES1   0.0000
   815 O1      19.6452  47.5201  31.1693   O.co2     1 RES1   0.0000
   816 O2      18.0606  47.4844  32.7720   O.co2     1 RES1   0.0000
   817 O3      20.4060  48.8930  28.4870   O.2       1 RES1   0.0000
   818 O4      15.4238  48.8930  33.4692   O.2       1 RES1   0.0000
   819 C1      19.0751  47.1020  32.1525   C.2       1 RES1   0.0000
   820 C2      19.8779  46.0122  32.9827   C.2       1 RES1   0.0000
   821 C3      20.9291  45.3756  32.3144   C.2       1 RES1   0.0000
   822 H3      21.1951  45.6416  31.4529   H         1 RES1   0.0000
   823 C4      19.3817  45.6035  34.1014   C.2       1 RES1   0.0000
   824 H4      18.5793  45.9594  34.4402   H         1 RES1   0.0000
   825 C5      20.1195  44.5660  34.8167   C.2       1 RES1   0.0000
   826 C6      19.5494  43.9959  36.0586   C.1       1 RES1   0.0000
   827 C7      19.2052  43.6517  37.1342   C.1       1 RES1   0.0000
   828 C8      18.6576  43.1041  38.2539   C.1       1 RES1   0.0000
   829 C9      18.3055  42.7520  39.3344   C.1       1 RES1   0.0000
   830 C10     17.7628  42.2093  40.5470   C.2       1 RES1   0.0000
   831 C11     16.5943  42.7374  41.0408   C.2       1 RES1   0.0000
   832 H11     16.1494  43.4365  40.5959   H         1 RES1   0.0000
   833 O1       6.7228  44.0917  47.5201   O.co2     1 RES1   0.0000
   834 O2       8.3255  42.5071  47.4844   O.co2     1 RES1   0.0000
   835 C1       7.7060  43.5216  47.1020   C.2       1 RES1   0.0000
   836 C2       8.5362  44.3244  46.0122   C.2       1 RES1   0.0000
   837 C3       7.8679  45.3756  45.3756   C.2       1 RES1   0.0000
   838 H3       7.0064  45.6416  45.6416   H         1 RES1   0.0000
   839 C4       9.6549  43.8282  45.6035   C.2       1 RES1   0.0000
   840 H4       9.9937  43.0258  45.9594   H         1 RES1   0.0000
   841 C5      10.3702  44.5660  44.5660   C.2       1 RES1   0.0000
   842 C6      11.6121  43.9959  43.9959   C.1       1 RES1   0.0000
   843 C7      12.6877  43.6517  43.6517   C.1       1 RES1   0.0000
   844 C8      13.8074  43.1041  43.1041   C.1       1 RES1   0.0000
   845 C9      14.8879  42.7520  42.7520   C.1       1 RES1   0.0000
   846 C10     16.1005  42.2093  42.2093   C.2       1 RES1   0.0000
   847 C11     16.5943  41.0408  42.7374   C.2       1 RES1   0.0000
   848 H11     16.1494  40.5959  43.4365   H         1 RES1   0.0000
   849 C1      22.6555  32.1525  43.5216   C.2       1 RES1   0.0000
   850 C2      21.5657  32.9827  44.3244   C.2       1 RES1   0.0000
   851 C3      20.9291  32.3144  45.3756   C.2       1 RES1   0.0000
   852 H3      21.1951  31.4529  45.6416   H         1 RES1   0.0000
   853 C4      21.1570  34.1014  43.8282   C.2       1 RES1   0.0000
   854 H4      21.5129  34.4402  43.0258   H         1 RES1   0.0000
   855 C5      20.1195  34.8167  44.5660   C.2       1 RES1   0.0000
   856 C6      19.5494  36.0586  43.9959   C.1       1 RES1   0.0000
   857 C7      19.2052  37.1342  43.6517   C.1       1 RES1   0.0000
   858 C8      18.6576  38.2539  43.1041   C.1       1 RES1   0.0000
   859 C9      18.3055  39.3344  42.7520   C.1       1 RES1   0.0000
   860 C10     17.7628  40.5470  42.2093   C.2       1 RES1   0.0000
   861 C11     18.2909  41.0408  41.0408   C.2       1 RES1   0.0000
   862 H11     18.9900  40.5959  40.5959   H         1 RES1   0.0000
   863 C1      22.6555  43.5216  32.1525   C.2       1 RES1   0.0000
   864 C2      21.5657  44.3244  32.9827   C.2       1 RES1   0.0000
   865 C4      21.1570  43.8282  34.1014   C.2       1 RES1   0.0000
   866 H4      21.5129  43.0258  34.4402   H         1 RES1   0.0000
   867 O1       6.7228  47.5201  44.0917   O.co2     1 RES1   0.0000
   868 O2       8.3255  47.4844  42.5071   O.co2     1 RES1   0.0000
   869 C1       7.7060  47.1020  43.5216   C.2       1 RES1   0.0000
   870 C2       8.5362  46.0122  44.3244   C.2       1 RES1   0.0000
   871 C4       9.6549  45.6035  43.8282   C.2       1 RES1   0.0000
   872 H4       9.9937  45.9594  43.0258   H         1 RES1   0.0000
   873 O1      19.6452  31.1693  47.5201   O.co2     1 RES1   0.0000
   874 O2      18.0606  32.7720  47.4844   O.co2     1 RES1   0.0000
   875 C1      19.0751  32.1525  47.1020   C.2       1 RES1   0.0000
   876 C2      19.8779  32.9827  46.0122   C.2       1 RES1   0.0000
   877 C4      19.3817  34.1014  45.6035   C.2       1 RES1   0.0000
   878 H4      18.5793  34.4402  45.9594   H         1 RES1   0.0000
   879 Cu1      5.6104  48.8930  43.2826   Cu        1 RES1   0.0000
   880 Cu1     18.8361  30.0569  48.8930   Cu        1 RES1   0.0000
   881 Cu1      5.6104  43.2826  48.8930   Cu        1 RES1   0.0000
   882 Cu2      7.4904  48.8930  41.4026   Cu        1 RES1   0.0000
   883 Cu2     16.9561  31.9369  48.8930   Cu        1 RES1   0.0000
   884 Cu2      7.4904  41.4026  48.8930   Cu        1 RES1   0.0000
   885 O1      17.7237  47.5201  29.2478   O.co2     1 RES1   0.0000
   886 O2      16.1210  47.4844  30.8324   O.co2     1 RES1   0.0000
   887 Cu1     30.0569   0.0000  30.0569   Cu        1 RES1   0.0000
   888 Cu1     43.2826   0.0000  43.2826   Cu        1 RES1   0.0000
   889 Cu2     31.9369   0.0000  31.9369   Cu        1 RES1   0.0000
   890 Cu2     41.4026   0.0000  41.4026   Cu        1 RES1   0.0000
   891 O3       4.0405  44.8525   0.0000   O.2       1 RES1   0.0000
   892 O4       9.0227  39.8703   0.0000   O.2       1 RES1   0.0000
   893 Cu1     43.2826  43.2826   0.0000   Cu        1 RES1   0.0000
   894 Cu1     30.0569  30.0569   0.0000   Cu        1 RES1   0.0000
   895 Cu2     41.4026  41.4026   0.0000   Cu        1 RES1   0.0000
   896 Cu2     31.9369  31.9369   0.0000   Cu        1 RES1   0.0000
   897 O1       4.8013  42.1702   1.3729   O.co2     1 RES1   0.0000
   898 O1       6.7228  44.0917   1.3729   O.co2     1 RES1   0.0000
   899 O2       6.3859  40.5675   1.4086   O.co2     1 RES1   0.0000
   900 O2       8.3255  42.5071   1.4086   O.co2     1 RES1   0.0000
   901 C1      26.2375  43.5216  32.1525   C.2       1 RES1   0.0000
   902 C2      27.3273  44.3244  32.9827   C.2       1 RES1   0.0000
   903 C3      27.9639  45.3756  32.3144   C.2       1 RES1   0.0000
   904 H3      27.6979  45.6416  31.4529   H         1 RES1   0.0000
   905 C4      27.7360  43.8282  34.1014   C.2       1 RES1   0.0000
   906 H4      27.3801  43.0258  34.4402   H         1 RES1   0.0000
   907 C5      28.7735  44.5660  34.8167   C.2       1 RES1   0.0000
   908 C6      29.3436  43.9959  36.0586   C.1       1 RES1   0.0000
   909 C7      29.6878  43.6517  37.1342   C.1       1 RES1   0.0000
   910 C8      30.2354  43.1041  38.2539   C.1       1 RES1   0.0000
   911 C9      30.5875  42.7520  39.3344   C.1       1 RES1   0.0000
   912 C10     31.1302  42.2093  40.5470   C.2       1 RES1   0.0000
   913 C11     30.6021  41.0408  41.0408   C.2       1 RES1   0.0000
   914 H11     29.9030  40.5959  40.5959   H         1 RES1   0.0000
   915 O1      29.2478  31.1693  47.5201   O.co2     1 RES1   0.0000
   916 O2      30.8324  32.7720  47.4844   O.co2     1 RES1   0.0000
   917 C1      29.8179  32.1525  47.1020   C.2       1 RES1   0.0000
   918 C2      29.0151  32.9827  46.0122   C.2       1 RES1   0.0000
   919 C3      27.9639  32.3144  45.3756   C.2       1 RES1   0.0000
   920 H3      27.6979  31.4529  45.6416   H         1 RES1   0.0000
   921 C4      29.5113  34.1014  45.6035   C.2       1 RES1   0.0000
   922 H4      30.3137  34.4402  45.9594   H         1 RES1   0.0000
   923 C5      28.7735  34.8167  44.5660   C.2       1 RES1   0.0000
   924 C6      29.3436  36.0586  43.9959   C.1       1 RES1   0.0000
   925 C7      29.6878  37.1342  43.6517   C.1       1 RES1   0.0000
   926 C8      30.2354  38.2539  43.1041   C.1       1 RES1   0.0000
   927 C9      30.5875  39.3344  42.7520   C.1       1 RES1   0.0000
   928 C10     31.1302  40.5470  42.2093   C.2       1 RES1   0.0000
   929 C11     32.2987  41.0408  42.7374   C.2       1 RES1   0.0000
   930 H11     32.7436  40.5959  43.4365   H         1 RES1   0.0000
   931 O1      42.1702  47.5201  44.0917   O.co2     1 RES1   0.0000
   932 O2      40.5675  47.4844  42.5071   O.co2     1 RES1   0.0000
   933 C1      41.1870  47.1020  43.5216   C.2       1 RES1   0.0000
   934 C2      40.3568  46.0122  44.3244   C.2       1 RES1   0.0000
   935 C3      41.0251  45.3756  45.3756   C.2       1 RES1   0.0000
   936 H3      41.8866  45.6416  45.6416   H         1 RES1   0.0000
   937 C4      39.2381  45.6035  43.8282   C.2       1 RES1   0.0000
   938 H4      38.8993  45.9594  43.0258   H         1 RES1   0.0000
   939 C5      38.5228  44.5660  44.5660   C.2       1 RES1   0.0000
   940 C6      37.2809  43.9959  43.9959   C.1       1 RES1   0.0000
   941 C7      36.2053  43.6517  43.6517   C.1       1 RES1   0.0000
   942 C8      35.0856  43.1041  43.1041   C.1       1 RES1   0.0000
   943 C9      34.0051  42.7520  42.7520   C.1       1 RES1   0.0000
   944 C10     32.7925  42.2093  42.2093   C.2       1 RES1   0.0000
   945 C11     32.2987  42.7374  41.0408   C.2       1 RES1   0.0000
   946 H11     32.7436  43.4365  40.5959   H         1 RES1   0.0000
   947 O1      29.2478  47.5201  31.1693   O.co2     1 RES1   0.0000
   948 O2      30.8324  47.4844  32.7720   O.co2     1 RES1   0.0000
   949 C1      29.8179  47.1020  32.1525   C.2       1 RES1   0.0000
   950 C2      29.0151  46.0122  32.9827   C.2       1 RES1   0.0000
   951 C4      29.5113  45.6035  34.1014   C.2       1 RES1   0.0000
   952 H4      30.3137  45.9594  34.4402   H         1 RES1   0.0000
   953 C1      26.2375  32.1525  43.5216   C.2       1 RES1   0.0000
   954 C2      27.3273  32.9827  44.3244   C.2       1 RES1   0.0000
   955 C4      27.7360  34.1014  43.8282   C.2       1 RES1   0.0000
   956 H4      27.3801  34.4402  43.0258   H         1 RES1   0.0000
   957 O1      42.1702  44.0917  47.5201   O.co2     1 RES1   0.0000
   958 O2      40.5675  42.5071  47.4844   O.co2     1 RES1   0.0000
   959 C1      41.1870  43.5216  47.1020   C.2       1 RES1   0.0000
   960 C2      40.3568  44.3244  46.0122   C.2       1 RES1   0.0000
   961 C4      39.2381  43.8282  45.6035   C.2       1 RES1   0.0000
   962 H4      38.8993  43.0258  45.9594   H         1 RES1   0.0000
   963 O3       4.0405  44.8525  48.8930   O.2       1 RES1   0.0000
   964 O4       9.0227  39.8703  48.8930   O.2       1 RES1   0.0000
   965 Cu1     30.0569  48.8930  30.0569   Cu        1 RES1   0.0000
   966 Cu1     43.2826  48.8930  43.2826   Cu        1 RES1   0.0000
   967 Cu1     43.2826  43.2826  48.8930   Cu        1 RES1   0.0000
   968 Cu1     30.0569  30.0569  48.8930   Cu        1 RES1   0.0000
   969 Cu2     31.9369  48.8930  31.9369   Cu        1 RES1   0.0000
   970 Cu2     41.4026  48.8930  41.4026   Cu        1 RES1   0.0000
   971 Cu2     41.4026  41.4026  48.8930   Cu        1 RES1   0.0000
   972 Cu2     31.9369  31.9369  48.8930   Cu        1 RES1   0.0000
   973 O1       4.8013  42.1702  47.5201   O.co2     1 RES1   0.0000
   974 O2       6.3859  40.5675  47.4844   O.co2     1 RES1   0.0000
   975 Cu1     30.0569  18.8361   0.0000   Cu        1 RES1   0.0000
   976 Cu1     43.2826   5.6104   0.0000   Cu        1 RES1   0.0000
   977 Cu2     31.9369  16.9561   0.0000   Cu        1 RES1   0.0000
   978 Cu2     41.4026   7.4904   0.0000   Cu        1 RES1   0.0000
   979 O1      29.2478   1.3729  31.1693   O.co2     1 RES1   0.0000
   980 O2      30.8324   1.4086  32.7720   O.co2     1 RES1   0.0000
   981 O3      28.4870   0.0000  28.4870   O.2       1 RES1   0.0000
   982 O4      33.4692   0.0000  33.4692   O.2       1 RES1   0.0000
   983 C1      29.8179   1.7910  32.1525   C.2       1 RES1   0.0000
   984 C2      29.0151   2.8808  32.9827   C.2       1 RES1   0.0000
   985 C3      27.9639   3.5174  32.3144   C.2       1 RES1   0.0000
   986 H3      27.6979   3.2514  31.4529   H         1 RES1   0.0000
   987 C4      29.5113   3.2895  34.1014   C.2       1 RES1   0.0000
   988 H4      30.3137   2.9336  34.4402   H         1 RES1   0.0000
   989 C5      28.7735   4.3270  34.8167   C.2       1 RES1   0.0000
   990 C6      29.3436   4.8971  36.0586   C.1       1 RES1   0.0000
   991 C7      29.6878   5.2413  37.1342   C.1       1 RES1   0.0000
   992 C8      30.2354   5.7889  38.2539   C.1       1 RES1   0.0000
   993 C9      30.5875   6.1410  39.3344   C.1       1 RES1   0.0000
   994 C10     31.1302   6.6837  40.5470   C.2       1 RES1   0.0000
   995 C11     32.2987   6.1556  41.0408   C.2       1 RES1   0.0000
   996 H11     32.7436   5.4565  40.5959   H         1 RES1   0.0000
   997 O1      42.1702   4.8013  47.5201   O.co2     1 RES1   0.0000
   998 O2      40.5675   6.3859  47.4844   O.co2     1 RES1   0.0000
   999 C1      41.1870   5.3714  47.1020   C.2       1 RES1   0.0000
  1000 C2      40.3568   4.5686  46.0122   C.2       1 RES1   0.0000
  1001 C3      41.0251   3.5174  45.3756   C.2       1 RES1   0.0000
  1002 H3      41.8866   3.2514  45.6416   H         1 RES1   0.0000
  1003 C4      39.2381   5.0648  45.6035   C.2       1 RES1   0.0000
  1004 H4      38.8993   5.8672  45.9594   H         1 RES1   0.0000
  1005 C5      38.5228   4.3270  44.5660   C.2       1 RES1   0.0000
  1006 C6      37.2809   4.8971  43.9959   C.1       1 RES1   0.0000
  1007 C7      36.2053   5.2413  43.6517   C.1       1 RES1   0.0000
  1008 C8      35.0856   5.7889  43.1041   C.1       1 RES1   0.0000
  1009 C9      34.0051   6.1410  42.7520   C.1       1 RES1   0.0000
  1010 C10     32.7925   6.6837  42.2093   C.2       1 RES1   0.0000
  1011 C11     32.2987   7.8522  42.7374   C.2       1 RES1   0.0000
  1012 H11     32.7436   8.2971  43.4365   H         1 RES1   0.0000
  1013 C1      26.2375  16.7405  43.5216   C.2       1 RES1   0.0000
  1014 C2      27.3273  15.9103  44.3244   C.2       1 RES1   0.0000
  1015 C3      27.9639  16.5786  45.3756   C.2       1 RES1   0.0000
  1016 H3      27.6979  17.4401  45.6416   H         1 RES1   0.0000
  1017 C4      27.7360  14.7916  43.8282   C.2       1 RES1   0.0000
  1018 H4      27.3801  14.4528  43.0258   H         1 RES1   0.0000
  1019 C5      28.7735  14.0763  44.5660   C.2       1 RES1   0.0000
  1020 C6      29.3436  12.8344  43.9959   C.1       1 RES1   0.0000
  1021 C7      29.6878  11.7588  43.6517   C.1       1 RES1   0.0000
  1022 C8      30.2354  10.6391  43.1041   C.1       1 RES1   0.0000
  1023 C9      30.5875   9.5586  42.7520   C.1       1 RES1   0.0000
  1024 C10     31.1302   8.3460  42.2093   C.2       1 RES1   0.0000
  1025 C11     30.6021   7.8522  41.0408   C.2       1 RES1   0.0000
  1026 H11     29.9030   8.2971  40.5959   H         1 RES1   0.0000
  1027 C1      26.2375   5.3714  32.1525   C.2       1 RES1   0.0000
  1028 C2      27.3273   4.5686  32.9827   C.2       1 RES1   0.0000
  1029 C4      27.7360   5.0648  34.1014   C.2       1 RES1   0.0000
  1030 H4      27.3801   5.8672  34.4402   H         1 RES1   0.0000
  1031 O1      42.1702   1.3729  44.0917   O.co2     1 RES1   0.0000
  1032 O2      40.5675   1.4086  42.5071   O.co2     1 RES1   0.0000
  1033 C1      41.1870   1.7910  43.5216   C.2       1 RES1   0.0000
  1034 C2      40.3568   2.8808  44.3244   C.2       1 RES1   0.0000
  1035 C4      39.2381   3.2895  43.8282   C.2       1 RES1   0.0000
  1036 H4      38.8993   2.9336  43.0258   H         1 RES1   0.0000
  1037 O1      29.2478  17.7237  47.5201   O.co2     1 RES1   0.0000
  1038 O2      30.8324  16.1210  47.4844   O.co2     1 RES1   0.0000
  1039 C1      29.8179  16.7405  47.1020   C.2       1 RES1   0.0000
  1040 C2      29.0151  15.9103  46.0122   C.2       1 RES1   0.0000
  1041 C4      29.5113  14.7916  45.6035   C.2       1 RES1   0.0000
  1042 H4      30.3137  14.4528  45.9594   H         1 RES1   0.0000
  1043 Cu1     30.0569  18.8361  48.8930   Cu        1 RES1   0.0000
  1044 Cu1     43.2826   5.6104  48.8930   Cu        1 RES1   0.0000
  1045 Cu2     31.9369  16.9561  48.8930   Cu        1 RES1   0.0000
  1046 Cu2     41.4026   7.4904  48.8930   Cu        1 RES1   0.0000
  1047 O1      31.1693   1.3729  29.2478   O.co2     1 RES1   0.0000
  1048 O2      32.7720   1.4086  30.8324   O.co2     1 RES1   0.0000
  1049 O3      28.4870  28.4870   0.0000   O.2       1 RES1   0.0000
  1050 O4      33.4692  33.4692   0.0000   O.2       1 RES1   0.0000
  1051 O1      31.1693  29.2478   1.3729   O.co2     1 RES1   0.0000
  1052 O1      29.2478  31.1693   1.3729   O.co2     1 RES1   0.0000
  1053 O2      32.7720  30.8324   1.4086   O.co2     1 RES1   0.0000
  1054 O2      30.8324  32.7720   1.4086   O.co2     1 RES1   0.0000
  1055 O3      28.4870  48.8930  28.4870   O.2       1 RES1   0.0000
  1056 O4      33.4692  48.8930  33.4692   O.2       1 RES1   0.0000
  1057 O3      28.4870  28.4870  48.8930   O.2       1 RES1   0.0000
  1058 O4      33.4692  33.4692  48.8930   O.2       1 RES1   0.0000
  1059 O1      31.1693  47.5201  29.2478   O.co2     1 RES1   0.0000
  1060 O1      31.1693  29.2478  47.5201   O.co2     1 RES1   0.0000
  1061 O2      32.7720  47.4844  30.8324   O.co2     1 RES1   0.0000
  1062 O2      32.7720  30.8324  47.4844   O.co2     1 RES1   0.0000
  1063 O3      44.8525   4.0405   0.0000   O.2       1 RES1   0.0000
  1064 O4      39.8703   9.0227   0.0000   O.2       1 RES1   0.0000
  1065 O1      44.0917   6.7228   1.3729   O.co2     1 RES1   0.0000
  1066 O1      42.1702   4.8013   1.3729   O.co2     1 RES1   0.0000
  1067 O2      42.5071   8.3255   1.4086   O.co2     1 RES1   0.0000
  1068 O2      40.5675   6.3859   1.4086   O.co2     1 RES1   0.0000
  1069 O3      44.8525   4.0405  48.8930   O.2       1 RES1   0.0000
  1070 O4      39.8703   9.0227  48.8930   O.2       1 RES1   0.0000
  1071 O1      44.0917   6.7228  47.5201   O.co2     1 RES1   0.0000
  1072 O2      42.5071   8.3255  47.4844   O.co2     1 RES1   0.0000
  1073 C1      22.6555  16.7405   5.3714   C.2       1 RES1   0.0000
  1074 C2      21.5657  15.9103   4.5686   C.2       1 RES1   0.0000
  1075 C3      20.9291  16.5786   3.5174   C.2       1 RES1   0.0000
  1076 H3      21.1951  17.4401   3.2514   H         1 RES1   0.0000
  1077 C4      21.1570  14.7916   5.0648   C.2       1 RES1   0.0000
  1078 H4      21.5129  14.4528   5.8672   H         1 RES1   0.0000
  1079 C5      20.1195  14.0763   4.3270   C.2       1 RES1   0.0000
  1080 C6      19.5494  12.8344   4.8971   C.1       1 RES1   0.0000
  1081 C7      19.2052  11.7588   5.2413   C.1       1 RES1   0.0000
  1082 C8      18.6576  10.6391   5.7889   C.1       1 RES1   0.0000
  1083 C9      18.3055   9.5586   6.1410   C.1       1 RES1   0.0000
  1084 C10     17.7628   8.3460   6.6837   C.2       1 RES1   0.0000
  1085 C11     18.2909   7.8522   7.8522   C.2       1 RES1   0.0000
  1086 H11     18.9900   8.2971   8.2971   H         1 RES1   0.0000
  1087 O1      19.6452   1.3729  17.7237   O.co2     1 RES1   0.0000
  1088 O2      18.0606   1.4086  16.1210   O.co2     1 RES1   0.0000
  1089 C1      19.0751   1.7910  16.7405   C.2       1 RES1   0.0000
  1090 C2      19.8779   2.8808  15.9103   C.2       1 RES1   0.0000
  1091 C3      20.9291   3.5174  16.5786   C.2       1 RES1   0.0000
  1092 H3      21.1951   3.2514  17.4401   H         1 RES1   0.0000
  1093 C4      19.3817   3.2895  14.7916   C.2       1 RES1   0.0000
  1094 H4      18.5793   2.9336  14.4528   H         1 RES1   0.0000
  1095 C5      20.1195   4.3270  14.0763   C.2       1 RES1   0.0000
  1096 C6      19.5494   4.8971  12.8344   C.1       1 RES1   0.0000
  1097 C7      19.2052   5.2413  11.7588   C.1       1 RES1   0.0000
  1098 C8      18.6576   5.7889  10.6391   C.1       1 RES1   0.0000
  1099 C9      18.3055   6.1410   9.5586   C.1       1 RES1   0.0000
  1100 C10     17.7628   6.6837   8.3460   C.2       1 RES1   0.0000
  1101 C11     16.5943   6.1556   7.8522   C.2       1 RES1   0.0000
  1102 H11     16.1494   5.4565   8.2971   H         1 RES1   0.0000
  1103 O1       6.7228   4.8013   1.3729   O.co2     1 RES1   0.0000
  1104 O2       8.3255   6.3859   1.4086   O.co2     1 RES1   0.0000
  1105 C1       7.7060   5.3714   1.7910   C.2       1 RES1   0.0000
  1106 C2       8.5362   4.5686   2.8808   C.2       1 RES1   0.0000
  1107 C3       7.8679   3.5174   3.5174   C.2       1 RES1   0.0000
  1108 H3       7.0064   3.2514   3.2514   H         1 RES1   0.0000
  1109 C4       9.6549   5.0648   3.2895   C.2       1 RES1   0.0000
  1110 H4       9.9937   5.8672   2.9336   H         1 RES1   0.0000
  1111 C5      10.3702   4.3270   4.3270   C.2       1 RES1   0.0000
  1112 C6      11.6121   4.8971   4.8971   C.1       1 RES1   0.0000
  1113 C7      12.6877   5.2413   5.2413   C.1       1 RES1   0.0000
  1114 C8      13.8074   5.7889   5.7889   C.1       1 RES1   0.0000
  1115 C9      14.8879   6.1410   6.1410   C.1       1 RES1   0.0000
  1116 C10     16.1005   6.6837   6.6837   C.2       1 RES1   0.0000
  1117 C11     16.5943   7.8522   6.1556   C.2       1 RES1   0.0000
  1118 H11     16.1494   8.2971   5.4565   H         1 RES1   0.0000
  1119 C1      19.0751  16.7405   1.7910   C.2       1 RES1   0.0000
  1120 C2      19.8779  15.9103   2.8808   C.2       1 RES1   0.0000
  1121 C4      19.3817  14.7916   3.2895   C.2       1 RES1   0.0000
  1122 H4      18.5793  14.4528   2.9336   H         1 RES1   0.0000
  1123 C1      22.6555   5.3714  16.7405   C.2       1 RES1   0.0000
  1124 C2      21.5657   4.5686  15.9103   C.2       1 RES1   0.0000
  1125 C4      21.1570   5.0648  14.7916   C.2       1 RES1   0.0000
  1126 H4      21.5129   5.8672  14.4528   H         1 RES1   0.0000
  1127 O1       6.7228   1.3729   4.8013   O.co2     1 RES1   0.0000
  1128 O2       8.3255   1.4086   6.3859   O.co2     1 RES1   0.0000
  1129 C1       7.7060   1.7910   5.3714   C.2       1 RES1   0.0000
  1130 C2       8.5362   2.8808   4.5686   C.2       1 RES1   0.0000
  1131 C4       9.6549   3.2895   5.0648   C.2       1 RES1   0.0000
  1132 H4       9.9937   2.9336   5.8672   H         1 RES1   0.0000
  1133 Cu1     18.8361   0.0000  18.8361   Cu        1 RES1   0.0000
  1134 Cu2     16.9561   0.0000  16.9561   Cu        1 RES1   0.0000
  1135 O3      20.4060   0.0000  20.4060   O.2       1 RES1   0.0000
  1136 O4      15.4238   0.0000  15.4238   O.2       1 RES1   0.0000
  1137 Cu1      5.6104   0.0000   5.6104   Cu        1 RES1   0.0000
  1138 Cu2      7.4904   0.0000   7.4904   Cu        1 RES1   0.0000
  1139 O1      17.7237   1.3729  19.6452   O.co2     1 RES1   0.0000
  1140 O2      16.1210   1.4086  18.0606   O.co2     1 RES1   0.0000
  1141 Cu1     18.8361  48.8930  18.8361   Cu        1 RES1   0.0000
  1142 Cu2     16.9561  48.8930  16.9561   Cu        1 RES1   0.0000
  1143 O3      20.4060  48.8930  20.4060   O.2       1 RES1   0.0000
  1144 O4      15.4238  48.8930  15.4238   O.2       1 RES1   0.0000
  1145 Cu1      5.6104  48.8930   5.6104   Cu        1 RES1   0.0000
  1146 Cu2      7.4904  48.8930   7.4904   Cu        1 RES1   0.0000
  1147 O1      17.7237  47.5201  19.6452   O.co2     1 RES1   0.0000
  1148 O1      19.6452  47.5201  17.7237   O.co2     1 RES1   0.0000
  1149 O2      16.1210  47.4844  18.0606   O.co2     1 RES1   0.0000
  1150 O2      18.0606  47.4844  16.1210   O.co2     1 RES1   0.0000
  1151 C1      22.6555  43.5216  16.7405   C.2       1 RES1   0.0000
  1152 C2      21.5657  44.3244  15.9103   C.2       1 RES1   0.0000
  1153 C3      20.9291  45.3756  16.5786   C.2       1 RES1   0.0000
  1154 H3      21.1951  45.6416  17.4401   H         1 RES1   0.0000
  1155 C4      21.1570  43.8282  14.7916   C.2       1 RES1   0.0000
  1156 H4      21.5129  43.0258  14.4528   H         1 RES1   0.0000
  1157 C5      20.1195  44.5660  14.0763   C.2       1 RES1   0.0000
  1158 C6      19.5494  43.9959  12.8344   C.1       1 RES1   0.0000
  1159 C7      19.2052  43.6517  11.7588   C.1       1 RES1   0.0000
  1160 C8      18.6576  43.1041  10.6391   C.1       1 RES1   0.0000
  1161 C9      18.3055  42.7520   9.5586   C.1       1 RES1   0.0000
  1162 C10     17.7628  42.2093   8.3460   C.2       1 RES1   0.0000
  1163 C11     18.2909  41.0408   7.8522   C.2       1 RES1   0.0000
  1164 H11     18.9900  40.5959   8.2971   H         1 RES1   0.0000
  1165 O1      19.6452  31.1693   1.3729   O.co2     1 RES1   0.0000
  1166 O2      18.0606  32.7720   1.4086   O.co2     1 RES1   0.0000
  1167 C1      19.0751  32.1525   1.7910   C.2       1 RES1   0.0000
  1168 C2      19.8779  32.9827   2.8808   C.2       1 RES1   0.0000
  1169 C3      20.9291  32.3144   3.5174   C.2       1 RES1   0.0000
  1170 H3      21.1951  31.4529   3.2514   H         1 RES1   0.0000
  1171 C4      19.3817  34.1014   3.2895   C.2       1 RES1   0.0000
  1172 H4      18.5793  34.4402   2.9336   H         1 RES1   0.0000
  1173 C5      20.1195  34.8167   4.3270   C.2       1 RES1   0.0000
  1174 C6      19.5494  36.0586   4.8971   C.1       1 RES1   0.0000
  1175 C7      19.2052  37.1342   5.2413   C.1       1 RES1   0.0000
  1176 C8      18.6576  38.2539   5.7889   C.1       1 RES1   0.0000
  1177 C9      18.3055  39.3344   6.1410   C.1       1 RES1   0.0000
  1178 C10     17.7628  40.5470   6.6837   C.2       1 RES1   0.0000
  1179 C11     16.5943  41.0408   6.1556   C.2       1 RES1   0.0000
  1180 H11     16.1494  40.5959   5.4565   H         1 RES1   0.0000
  1181 O1       6.7228  47.5201   4.8013   O.co2     1 RES1   0.0000
  1182 O2       8.3255  47.4844   6.3859   O.co2     1 RES1   0.0000
  1183 C1       7.7060  47.1020   5.3714   C.2       1 RES1   0.0000
  1184 C2       8.5362  46.0122   4.5686   C.2       1 RES1   0.0000
  1185 C3       7.8679  45.3756   3.5174   C.2       1 RES1   0.0000
  1186 H3       7.0064  45.6416   3.2514   H         1 RES1   0.0000
  1187 C4       9.6549  45.6035   5.0648   C.2       1 RES1   0.0000
  1188 H4       9.9937  45.9594   5.8672   H         1 RES1   0.0000
  1189 C5      10.3702  44.5660   4.3270   C.2       1 RES1   0.0000
  1190 C6      11.6121  43.9959   4.8971   C.1       1 RES1   0.0000
  1191 C7      12.6877  43.6517   5.2413   C.1       1 RES1   0.0000
  1192 C8      13.8074  43.1041   5.7889   C.1       1 RES1   0.0000
  1193 C9      14.8879  42.7520   6.1410   C.1       1 RES1   0.0000
  1194 C10     16.1005  42.2093   6.6837   C.2       1 RES1   0.0000
  1195 C11     16.5943  42.7374   7.8522   C.2       1 RES1   0.0000
  1196 H11     16.1494  43.4365   8.2971   H         1 RES1   0.0000
  1197 C1      19.0751  47.1020  16.7405   C.2       1 RES1   0.0000
  1198 C2      19.8779  46.0122  15.9103   C.2       1 RES1   0.0000
  1199 C4      19.3817  45.6035  14.7916   C.2       1 RES1   0.0000
  1200 H4      18.5793  45.9594  14.4528   H         1 RES1   0.0000
  1201 C1      22.6555  32.1525   5.3714   C.2       1 RES1   0.0000
  1202 C2      21.5657  32.9827   4.5686   C.2       1 RES1   0.0000
  1203 C4      21.1570  34.1014   5.0648   C.2       1 RES1   0.0000
  1204 H4      21.5129  34.4402   5.8672   H         1 RES1   0.0000
  1205 C1       7.7060  43.5216   1.7910   C.2       1 RES1   0.0000
  1206 C2       8.5362  44.3244   2.8808   C.2       1 RES1   0.0000
  1207 C4       9.6549  43.8282   3.2895   C.2       1 RES1   0.0000
  1208 H4       9.9937  43.0258   2.9336   H         1 RES1   0.0000
  1209 O3      20.4060  28.4870   0.0000   O.2       1 RES1   0.0000
  1210 O4      15.4238  33.4692   0.0000   O.2       1 RES1   0.0000
  1211 O1      17.7237  29.2478   1.3729   O.co2     1 RES1   0.0000
  1212 O2      16.1210  30.8324   1.4086   O.co2     1 RES1   0.0000
  1213 O3      20.4060  28.4870  48.8930   O.2       1 RES1   0.0000
  1214 O4      15.4238  33.4692  48.8930   O.2       1 RES1   0.0000
  1215 O1      17.7237  29.2478  47.5201   O.co2     1 RES1   0.0000
  1216 O2      16.1210  30.8324  47.4844   O.co2     1 RES1   0.0000
  1217 O3       4.0405   4.0405   0.0000   O.2       1 RES1   0.0000
  1218 O4       9.0227   9.0227   0.0000   O.2       1 RES1   0.0000
  1219 O3       4.0405   0.0000   4.0405   O.2       1 RES1   0.0000
  1220 O4       9.0227   0.0000   9.0227   O.2       1 RES1   0.0000
  1221 O1       4.8013   1.3729   6.7228   O.co2     1 RES1   0.0000
  1222 O1       4.8013   6.7228   1.3729   O.co2     1 RES1   0.0000
  1223 O2       6.3859   1.4086   8.3255   O.co2     1 RES1   0.0000
  1224 O2       6.3859   8.3255   1.4086   O.co2     1 RES1   0.0000
  1225 O3       4.0405   4.0405  48.8930   O.2       1 RES1   0.0000
  1226 O4       9.0227   9.0227  48.8930   O.2       1 RES1   0.0000
  1227 O1       4.8013   6.7228  47.5201   O.co2     1 RES1   0.0000
  1228 O2       6.3859   8.3255  47.4844   O.co2     1 RES1   0.0000
  1229 O3       4.0405  48.8930   4.0405   O.2       1 RES1   0.0000
  1230 O4       9.0227  48.8930   9.0227   O.2       1 RES1   0.0000
  1231 O1       4.8013  47.5201   6.7228   O.co2     1 RES1   0.0000
  1232 O2       6.3859  47.4844   8.3255   O.co2     1 RES1   0.0000
  1233 C1      26.2375   5.3714  16.7405   C.2       1 RES1   0.0000
  1234 C2      27.3273   4.5686  15.9103   C.2       1 RES1   0.0000
  1235 C3      27.9639   3.5174  16.5786   C.2       1 RES1   0.0000
  1236 H3      27.6979   3.2514  17.4401   H         1 RES1   0.0000
  1237 C4      27.7360   5.0648  14.7916   C.2       1 RES1   0.0000
  1238 H4      27.3801   5.8672  14.4528   H         1 RES1   0.0000
  1239 C5      28.7735   4.3270  14.0763   C.2       1 RES1   0.0000
  1240 C6      29.3436   4.8971  12.8344   C.1       1 RES1   0.0000
  1241 C7      29.6878   5.2413  11.7588   C.1       1 RES1   0.0000
  1242 C8      30.2354   5.7889  10.6391   C.1       1 RES1   0.0000
  1243 C9      30.5875   6.1410   9.5586   C.1       1 RES1   0.0000
  1244 C10     31.1302   6.6837   8.3460   C.2       1 RES1   0.0000
  1245 C11     30.6021   7.8522   7.8522   C.2       1 RES1   0.0000
  1246 H11     29.9030   8.2971   8.2971   H         1 RES1   0.0000
  1247 O1      29.2478  17.7237   1.3729   O.co2     1 RES1   0.0000
  1248 O2      30.8324  16.1210   1.4086   O.co2     1 RES1   0.0000
  1249 C1      29.8179  16.7405   1.7910   C.2       1 RES1   0.0000
  1250 C2      29.0151  15.9103   2.8808   C.2       1 RES1   0.0000
  1251 C3      27.9639  16.5786   3.5174   C.2       1 RES1   0.0000
  1252 H3      27.6979  17.4401   3.2514   H         1 RES1   0.0000
  1253 C4      29.5113  14.7916   3.2895   C.2       1 RES1   0.0000
  1254 H4      30.3137  14.4528   2.9336   H         1 RES1   0.0000
  1255 C5      28.7735  14.0763   4.3270   C.2       1 RES1   0.0000
  1256 C6      29.3436  12.8344   4.8971   C.1       1 RES1   0.0000
  1257 C7      29.6878  11.7588   5.2413   C.1       1 RES1   0.0000
  1258 C8      30.2354  10.6391   5.7889   C.1       1 RES1   0.0000
  1259 C9      30.5875   9.5586   6.1410   C.1       1 RES1   0.0000
  1260 C10     31.1302   8.3460   6.6837   C.2       1 RES1   0.0000
  1261 C11     32.2987   7.8522   6.1556   C.2       1 RES1   0.0000
  1262 H11     32.7436   8.2971   5.4565   H         1 RES1   0.0000
  1263 O1      42.1702   1.3729   4.8013   O.co2     1 RES1   0.0000
  1264 O2      40.5675   1.4086   6.3859   O.co2     1 RES1   0.0000
  1265 C1      41.1870   1.7910   5.3714   C.2       1 RES1   0.0000
  1266 C2      40.3568   2.8808   4.5686   C.2       1 RES1   0.0000
  1267 C3      41.0251   3.5174   3.5174   C.2       1 RES1   0.0000
  1268 H3      41.8866   3.2514   3.2514   H         1 RES1   0.0000
  1269 C4      39.2381   3.2895   5.0648   C.2       1 RES1   0.0000
  1270 H4      38.8993   2.9336   5.8672   H         1 RES1   0.0000
  1271 C5      38.5228   4.3270   4.3270   C.2       1 RES1   0.0000
  1272 C6      37.2809   4.8971   4.8971   C.1       1 RES1   0.0000
  1273 C7      36.2053   5.2413   5.2413   C.1       1 RES1   0.0000
  1274 C8      35.0856   5.7889   5.7889   C.1       1 RES1   0.0000
  1275 C9      34.0051   6.1410   6.1410   C.1       1 RES1   0.0000
  1276 C10     32.7925   6.6837   6.6837   C.2       1 RES1   0.0000
  1277 C11     32.2987   6.1556   7.8522   C.2       1 RES1   0.0000
  1278 H11     32.7436   5.4565   8.2971   H         1 RES1   0.0000
  1279 O1      29.2478   1.3729  17.7237   O.co2     1 RES1   0.0000
  1280 O2      30.8324   1.4086  16.1210   O.co2     1 RES1   0.0000
  1281 C1      29.8179   1.7910  16.7405   C.2       1 RES1   0.0000
  1282 C2      29.0151   2.8808  15.9103   C.2       1 RES1   0.0000
  1283 C4      29.5113   3.2895  14.7916   C.2       1 RES1   0.0000
  1284 H4      30.3137   2.9336  14.4528   H         1 RES1   0.0000
  1285 C1      26.2375  16.7405   5.3714   C.2       1 RES1   0.0000
  1286 C2      27.3273  15.9103   4.5686   C.2       1 RES1   0.0000
  1287 C4      27.7360  14.7916   5.0648   C.2       1 RES1   0.0000
  1288 H4      27.3801  14.4528   5.8672   H         1 RES1   0.0000
  1289 C1      41.1870   5.3714   1.7910   C.2       1 RES1   0.0000
  1290 C2      40.3568   4.5686   2.8808   C.2       1 RES1   0.0000
  1291 C4      39.2381   5.0648   3.2895   C.2       1 RES1   0.0000
  1292 H4      38.8993   5.8672   2.9336   H         1 RES1   0.0000
  1293 Cu1     30.0569   0.0000  18.8361   Cu        1 RES1   0.0000
  1294 Cu2     31.9369   0.0000  16.9561   Cu        1 RES1   0.0000
  1295 O3      28.4870   0.0000  20.4060   O.2       1 RES1   0.0000
  1296 O4      33.4692   0.0000  15.4238   O.2       1 RES1   0.0000
  1297 O3      28.4870  20.4060   0.0000   O.2       1 RES1   0.0000
  1298 O4      33.4692  15.4238   0.0000   O.2       1 RES1   0.0000
  1299 Cu1     43.2826   0.0000   5.6104   Cu        1 RES1   0.0000
  1300 Cu2     41.4026   0.0000   7.4904   Cu        1 RES1   0.0000
  1301 O1      31.1693   1.3729  19.6452   O.co2     1 RES1   0.0000
  1302 O1      31.1693  19.6452   1.3729   O.co2     1 RES1   0.0000
  1303 O2      32.7720   1.4086  18.0606   O.co2     1 RES1   0.0000
  1304 O2      32.7720  18.0606   1.4086   O.co2     1 RES1   0.0000
  1305 O3      28.4870  20.4060  48.8930   O.2       1 RES1   0.0000
  1306 O4      33.4692  15.4238  48.8930   O.2       1 RES1   0.0000
  1307 O1      31.1693  19.6452  47.5201   O.co2     1 RES1   0.0000
  1308 O2      32.7720  18.0606  47.4844   O.co2     1 RES1   0.0000
  1309 Cu1     30.0569  48.8930  18.8361   Cu        1 RES1   0.0000
  1310 Cu2     31.9369  48.8930  16.9561   Cu        1 RES1   0.0000
  1311 O1      29.2478  47.5201  17.7237   O.co2     1 RES1   0.0000
  1312 O2      30.8324  47.4844  16.1210   O.co2     1 RES1   0.0000
  1313 O3      28.4870  48.8930  20.4060   O.2       1 RES1   0.0000
  1314 O4      33.4692  48.8930  15.4238   O.2       1 RES1   0.0000
  1315 C1      29.8179  47.1020  16.7405   C.2       1 RES1   0.0000
  1316 C2      29.0151  46.0122  15.9103   C.2       1 RES1   0.0000
  1317 C3      27.9639  45.3756  16.5786   C.2       1 RES1   0.0000
  1318 H3      27.6979  45.6416  17.4401   H         1 RES1   0.0000
  1319 C4      29.5113  45.6035  14.7916   C.2       1 RES1   0.0000
  1320 H4      30.3137  45.9594  14.4528   H         1 RES1   0.0000
  1321 C5      28.7735  44.5660  14.0763   C.2       1 RES1   0.0000
  1322 C6      29.3436  43.9959  12.8344   C.1       1 RES1   0.0000
  1323 C7      29.6878  43.6517  11.7588   C.1       1 RES1   0.0000
  1324 C8      30.2354  43.1041  10.6391   C.1       1 RES1   0.0000
  1325 C9      30.5875  42.7520   9.5586   C.1       1 RES1   0.0000
  1326 C10     31.1302  42.2093   8.3460   C.2       1 RES1   0.0000
  1327 C11     32.2987  42.7374   7.8522   C.2       1 RES1   0.0000
  1328 H11     32.7436  43.4365   8.2971   H         1 RES1   0.0000
  1329 O1      42.1702  44.0917   1.3729   O.co2     1 RES1   0.0000
  1330 O2      40.5675  42.5071   1.4086   O.co2     1 RES1   0.0000
  1331 C1      41.1870  43.5216   1.7910   C.2       1 RES1   0.0000
  1332 C2      40.3568  44.3244   2.8808   C.2       1 RES1   0.0000
  1333 C3      41.0251  45.3756   3.5174   C.2       1 RES1   0.0000
  1334 H3      41.8866  45.6416   3.2514   H         1 RES1   0.0000
  1335 C4      39.2381  43.8282   3.2895   C.2       1 RES1   0.0000
  1336 H4      38.8993  43.0258   2.9336   H         1 RES1   0.0000
  1337 C5      38.5228  44.5660   4.3270   C.2       1 RES1   0.0000
  1338 C6      37.2809  43.9959   4.8971   C.1       1 RES1   0.0000
  1339 C7      36.2053  43.6517   5.2413   C.1       1 RES1   0.0000
  1340 C8      35.0856  43.1041   5.7889   C.1       1 RES1   0.0000
  1341 C9      34.0051  42.7520   6.1410   C.1       1 RES1   0.0000
  1342 C10     32.7925  42.2093   6.6837   C.2       1 RES1   0.0000
  1343 C11     32.2987  41.0408   6.1556   C.2       1 RES1   0.0000
  1344 H11     32.7436  40.5959   5.4565   H         1 RES1   0.0000
  1345 C1      26.2375  32.1525   5.3714   C.2       1 RES1   0.0000
  1346 C2      27.3273  32.9827   4.5686   C.2       1 RES1   0.0000
  1347 C3      27.9639  32.3144   3.5174   C.2       1 RES1   0.0000
  1348 H3      27.6979  31.4529   3.2514   H         1 RES1   0.0000
  1349 C4      27.7360  34.1014   5.0648   C.2       1 RES1   0.0000
  1350 H4      27.3801  34.4402   5.8672   H         1 RES1   0.0000
  1351 C5      28.7735  34.8167   4.3270   C.2       1 RES1   0.0000
  1352 C6      29.3436  36.0586   4.8971   C.1       1 RES1   0.0000
  1353 C7      29.6878  37.1342   5.2413   C.1       1 RES1   0.0000
  1354 C8      30.2354  38.2539   5.7889   C.1       1 RES1   0.0000
  1355 C9      30.5875  39.3344   6.1410   C.1       1 RES1   0.0000
  1356 C10     31.1302  40.5470   6.6837   C.2       1 RES1   0.0000
  1357 C11     30.6021  41.0408   7.8522   C.2       1 RES1   0.0000
  1358 H11     29.9030  40.5959   8.2971   H         1 RES1   0.0000
  1359 C1      26.2375  43.5216  16.7405   C.2       1 RES1   0.0000
  1360 C2      27.3273  44.3244  15.9103   C.2       1 RES1   0.0000
  1361 C4      27.7360  43.8282  14.7916   C.2       1 RES1   0.0000
  1362 H4      27.3801  43.0258  14.4528   H         1 RES1   0.0000
  1363 O1      42.1702  47.5201   4.8013   O.co2     1 RES1   0.0000
  1364 O2      40.5675  47.4844   6.3859   O.co2     1 RES1   0.0000
  1365 C1      41.1870  47.1020   5.3714   C.2       1 RES1   0.0000
  1366 C2      40.3568  46.0122   4.5686   C.2       1 RES1   0.0000
  1367 C4      39.2381  45.6035   5.0648   C.2       1 RES1   0.0000
  1368 H4      38.8993  45.9594   5.8672   H         1 RES1   0.0000
  1369 C1      29.8179  32.1525   1.7910   C.2       1 RES1   0.0000
  1370 C2      29.0151  32.9827   2.8808   C.2       1 RES1   0.0000
  1371 C4      29.5113  34.1014   3.2895   C.2       1 RES1   0.0000
  1372 H4      30.3137  34.4402   2.9336   H         1 RES1   0.0000
  1373 Cu1     43.2826  48.8930   5.6104   Cu        1 RES1   0.0000
  1374 Cu2     41.4026  48.8930   7.4904   Cu        1 RES1   0.0000
  1375 O1      31.1693  47.5201  19.6452   O.co2     1 RES1   0.0000
  1376 O2      32.7720  47.4844  18.0606   O.co2     1 RES1   0.0000
  1377 O3      44.8525   0.0000  44.8525   O.2       1 RES1   0.0000
  1378 O4      39.8703   0.0000  39.8703   O.2       1 RES1   0.0000
  1379 O1      44.0917   1.3729  42.1702   O.co2     1 RES1   0.0000
  1380 O2      42.5071   1.4086  40.5675   O.co2     1 RES1   0.0000
  1381 O3      44.8525  48.8930  44.8525   O.2       1 RES1   0.0000
  1382 O4      39.8703  48.8930  39.8703   O.2       1 RES1   0.0000
  1383 O1      44.0917  47.5201  42.1702   O.co2     1 RES1   0.0000
  1384 O2      42.5071  47.4844  40.5675   O.co2     1 RES1   0.0000
  1385 O3       4.0405   0.0000  44.8525   O.2       1 RES1   0.0000
  1386 O4       9.0227   0.0000  39.8703   O.2       1 RES1   0.0000
  1387 O1       4.8013   1.3729  42.1702   O.co2     1 RES1   0.0000
  1388 O2       6.3859   1.4086  40.5675   O.co2     1 RES1   0.0000
  1389 O3       4.0405  48.8930  44.8525   O.2       1 RES1   0.0000
  1390 O4       9.0227  48.8930  39.8703   O.2       1 RES1   0.0000
  1391 O1       4.8013  47.5201  42.1702   O.co2     1 RES1   0.0000
  1392 O2       6.3859  47.4844  40.5675   O.co2     1 RES1   0.0000
  1393 O3      44.8525   0.0000   4.0405   O.2       1 RES1   0.0000
  1394 O4      39.8703   0.0000   9.0227   O.2       1 RES1   0.0000
  1395 O1      44.0917   1.3729   6.7228   O.co2     1 RES1   0.0000
  1396 O2      42.5071   1.4086   8.3255   O.co2     1 RES1   0.0000
  1397 O3      44.8525  48.8930   4.0405   O.2       1 RES1   0.0000
  1398 O4      39.8703  48.8930   9.0227   O.2       1 RES1   0.0000
  1399 O1      44.0917  47.5201   6.7228   O.co2     1 RES1   0.0000
  1400 O2      42.5071  47.4844   8.3255   O.co2     1 RES1   0.0000
  1401 O3      44.8525  44.8525   0.0000   O.2       1 RES1   0.0000
  1402 O4      39.8703  39.8703   0.0000   O.2       1 RES1   0.0000
  1403 O1      44.0917  42.1702   1.3729   O.co2     1 RES1   0.0000
  1404 O2      42.5071  40.5675   1.4086   O.co2     1 RES1   0.0000
  1405 O3      44.8525  44.8525  48.8930   O.2       1 RES1   0.0000
  1406 O4      39.8703  39.8703  48.8930   O.2       1 RES1   0.0000
  1407 O1      44.0917  42.1702  47.5201   O.co2     1 RES1   0.0000
  1408 O2      42.5071  40.5675  47.4844   O.co2     1 RES1   0.0000
  1409 Cu1      0.0000  30.0569  30.0569   Cu        1 RES1   0.0000
  1410 Cu2      0.0000  31.9369  31.9369   Cu        1 RES1   0.0000
  1411 O3       0.0000  28.4870  28.4870   O.2       1 RES1   0.0000
  1412 O4       0.0000  33.4692  33.4692   O.2       1 RES1   0.0000
  1413 Cu1      0.0000  18.8361  30.0569   Cu        1 RES1   0.0000
  1414 Cu1      0.0000   5.6104  43.2826   Cu        1 RES1   0.0000
  1415 Cu1      0.0000  43.2826  43.2826   Cu        1 RES1   0.0000
  1416 Cu2      0.0000  16.9561  31.9369   Cu        1 RES1   0.0000
  1417 Cu2      0.0000   7.4904  41.4026   Cu        1 RES1   0.0000
  1418 Cu2      0.0000  41.4026  41.4026   Cu        1 RES1   0.0000
  1419 O1       1.3729  31.1693  29.2478   O.co2     1 RES1   0.0000
  1420 O1       1.3729  29.2478  31.1693   O.co2     1 RES1   0.0000
  1421 O2       1.4086  32.7720  30.8324   O.co2     1 RES1   0.0000
  1422 O2       1.4086  30.8324  32.7720   O.co2     1 RES1   0.0000
  1423 Cu1     48.8930  30.0569  30.0569   Cu        1 RES1   0.0000
  1424 Cu2     48.8930  31.9369  31.9369   Cu        1 RES1   0.0000
  1425 O1      47.5201  29.2478  31.1693   O.co2     1 RES1   0.0000
  1426 O2      47.4844  30.8324  32.7720   O.co2     1 RES1   0.0000
  1427 O3      48.8930  28.4870  28.4870   O.2       1 RES1   0.0000
  1428 O4      48.8930  33.4692  33.4692   O.2       1 RES1   0.0000
  1429 C1      47.1020  29.8179  32.1525   C.2       1 RES1   0.0000
  1430 C2      46.0122  29.0151  32.9827   C.2       1 RES1   0.0000
  1431 C3      45.3756  27.9639  32.3144   C.2       1 RES1   0.0000
  1432 H3      45.6416  27.6979  31.4529   H         1 RES1   0.0000
  1433 C4      45.6035  29.5113  34.1014   C.2       1 RES1   0.0000
  1434 H4      45.9594  30.3137  34.4402   H         1 RES1   0.0000
  1435 C5      44.5660  28.7735  34.8167   C.2       1 RES1   0.0000
  1436 C6      43.9959  29.3436  36.0586   C.1       1 RES1   0.0000
  1437 C7      43.6517  29.6878  37.1342   C.1       1 RES1   0.0000
  1438 C8      43.1041  30.2354  38.2539   C.1       1 RES1   0.0000
  1439 C9      42.7520  30.5875  39.3344   C.1       1 RES1   0.0000
  1440 C10     42.2093  31.1302  40.5470   C.2       1 RES1   0.0000
  1441 C11     42.7374  32.2987  41.0408   C.2       1 RES1   0.0000
  1442 H11     43.4365  32.7436  40.5959   H         1 RES1   0.0000
  1443 C1      43.5216  41.1870  47.1020   C.2       1 RES1   0.0000
  1444 C2      44.3244  40.3568  46.0122   C.2       1 RES1   0.0000
  1445 C3      45.3756  41.0251  45.3756   C.2       1 RES1   0.0000
  1446 H3      45.6416  41.8866  45.6416   H         1 RES1   0.0000
  1447 C4      43.8282  39.2381  45.6035   C.2       1 RES1   0.0000
  1448 H4      43.0258  38.8993  45.9594   H         1 RES1   0.0000
  1449 C5      44.5660  38.5228  44.5660   C.2       1 RES1   0.0000
  1450 C6      43.9959  37.2809  43.9959   C.1       1 RES1   0.0000
  1451 C7      43.6517  36.2053  43.6517   C.1       1 RES1   0.0000
  1452 C8      43.1041  35.0856  43.1041   C.1       1 RES1   0.0000
  1453 C9      42.7520  34.0051  42.7520   C.1       1 RES1   0.0000
  1454 C10     42.2093  32.7925  42.2093   C.2       1 RES1   0.0000
  1455 C11     41.0408  32.2987  42.7374   C.2       1 RES1   0.0000
  1456 H11     40.5959  32.7436  43.4365   H         1 RES1   0.0000
  1457 C1      32.1525  26.2375  43.5216   C.2       1 RES1   0.0000
  1458 C2      32.9827  27.3273  44.3244   C.2       1 RES1   0.0000
  1459 C3      32.3144  27.9639  45.3756   C.2       1 RES1   0.0000
  1460 H3      31.4529  27.6979  45.6416   H         1 RES1   0.0000
  1461 C4      34.1014  27.7360  43.8282   C.2       1 RES1   0.0000
  1462 H4      34.4402  27.3801  43.0258   H         1 RES1   0.0000
  1463 C5      34.8167  28.7735  44.5660   C.2       1 RES1   0.0000
  1464 C6      36.0586  29.3436  43.9959   C.1       1 RES1   0.0000
  1465 C7      37.1342  29.6878  43.6517   C.1       1 RES1   0.0000
  1466 C8      38.2539  30.2354  43.1041   C.1       1 RES1   0.0000
  1467 C9      39.3344  30.5875  42.7520   C.1       1 RES1   0.0000
  1468 C10     40.5470  31.1302  42.2093   C.2       1 RES1   0.0000
  1469 C11     41.0408  30.6021  41.0408   C.2       1 RES1   0.0000
  1470 H11     40.5959  29.9030  40.5959   H         1 RES1   0.0000
  1471 C1      43.5216  26.2375  32.1525   C.2       1 RES1   0.0000
  1472 C2      44.3244  27.3273  32.9827   C.2       1 RES1   0.0000
  1473 C4      43.8282  27.7360  34.1014   C.2       1 RES1   0.0000
  1474 H4      43.0258  27.3801  34.4402   H         1 RES1   0.0000
  1475 O1      47.5201  42.1702  44.0917   O.co2     1 RES1   0.0000
  1476 O2      47.4844  40.5675  42.5071   O.co2     1 RES1   0.0000
  1477 C1      47.1020  41.1870  43.5216   C.2       1 RES1   0.0000
  1478 C2      46.0122  40.3568  44.3244   C.2       1 RES1   0.0000
  1479 C4      45.6035  39.2381  43.8282   C.2       1 RES1   0.0000
  1480 H4      45.9594  38.8993  43.0258   H         1 RES1   0.0000
  1481 C1      32.1525  29.8179  47.1020   C.2       1 RES1   0.0000
  1482 C2      32.9827  29.0151  46.0122   C.2       1 RES1   0.0000
  1483 C4      34.1014  29.5113  45.6035   C.2       1 RES1   0.0000
  1484 H4      34.4402  30.3137  45.9594   H         1 RES1   0.0000
  1485 C1      43.5216  22.6555  32.1525   C.2       1 RES1   0.0000
  1486 C2      44.3244  21.5657  32.9827   C.2       1 RES1   0.0000
  1487 C3      45.3756  20.9291  32.3144   C.2       1 RES1   0.0000
  1488 H3      45.6416  21.1951  31.4529   H         1 RES1   0.0000
  1489 C4      43.8282  21.1570  34.1014   C.2       1 RES1   0.0000
  1490 H4      43.0258  21.5129  34.4402   H         1 RES1   0.0000
  1491 C5      44.5660  20.1195  34.8167   C.2       1 RES1   0.0000
  1492 C6      43.9959  19.5494  36.0586   C.1       1 RES1   0.0000
  1493 C7      43.6517  19.2052  37.1342   C.1       1 RES1   0.0000
  1494 C8      43.1041  18.6576  38.2539   C.1       1 RES1   0.0000
  1495 C9      42.7520  18.3055  39.3344   C.1       1 RES1   0.0000
  1496 C10     42.2093  17.7628  40.5470   C.2       1 RES1   0.0000
  1497 C11     41.0408  18.2909  41.0408   C.2       1 RES1   0.0000
  1498 H11     40.5959  18.9900  40.5959   H         1 RES1   0.0000
  1499 C1      32.1525  19.0751  47.1020   C.2       1 RES1   0.0000
  1500 C2      32.9827  19.8779  46.0122   C.2       1 RES1   0.0000
  1501 C3      32.3144  20.9291  45.3756   C.2       1 RES1   0.0000
  1502 H3      31.4529  21.1951  45.6416   H         1 RES1   0.0000
  1503 C4      34.1014  19.3817  45.6035   C.2       1 RES1   0.0000
  1504 H4      34.4402  18.5793  45.9594   H         1 RES1   0.0000
  1505 C5      34.8167  20.1195  44.5660   C.2       1 RES1   0.0000
  1506 C6      36.0586  19.5494  43.9959   C.1       1 RES1   0.0000
  1507 C7      37.1342  19.2052  43.6517   C.1       1 RES1   0.0000
  1508 C8      38.2539  18.6576  43.1041   C.1       1 RES1   0.0000
  1509 C9      39.3344  18.3055  42.7520   C.1       1 RES1   0.0000
  1510 C10     40.5470  17.7628  42.2093   C.2       1 RES1   0.0000
  1511 C11     41.0408  16.5943  42.7374   C.2       1 RES1   0.0000
  1512 H11     40.5959  16.1494  43.4365   H         1 RES1   0.0000
  1513 O1      47.5201   6.7228  44.0917   O.co2     1 RES1   0.0000
  1514 O2      47.4844   8.3255  42.5071   O.co2     1 RES1   0.0000
  1515 C1      47.1020   7.7060  43.5216   C.2       1 RES1   0.0000
  1516 C2      46.0122   8.5362  44.3244   C.2       1 RES1   0.0000
  1517 C3      45.3756   7.8679  45.3756   C.2       1 RES1   0.0000
  1518 H3      45.6416   7.0064  45.6416   H         1 RES1   0.0000
  1519 C4      45.6035   9.6549  43.8282   C.2       1 RES1   0.0000
  1520 H4      45.9594   9.9937  43.0258   H         1 RES1   0.0000
  1521 C5      44.5660  10.3702  44.5660   C.2       1 RES1   0.0000
  1522 C6      43.9959  11.6121  43.9959   C.1       1 RES1   0.0000
  1523 C7      43.6517  12.6877  43.6517   C.1       1 RES1   0.0000
  1524 C8      43.1041  13.8074  43.1041   C.1       1 RES1   0.0000
  1525 C9      42.7520  14.8879  42.7520   C.1       1 RES1   0.0000
  1526 C10     42.2093  16.1005  42.2093   C.2       1 RES1   0.0000
  1527 C11     42.7374  16.5943  41.0408   C.2       1 RES1   0.0000
  1528 H11     43.4365  16.1494  40.5959   H         1 RES1   0.0000
  1529 O1      47.5201  19.6452  31.1693   O.co2     1 RES1   0.0000
  1530 O2      47.4844  18.0606  32.7720   O.co2     1 RES1   0.0000
  1531 C1      47.1020  19.0751  32.1525   C.2       1 RES1   0.0000
  1532 C2      46.0122  19.8779  32.9827   C.2       1 RES1   0.0000
  1533 C4      45.6035  19.3817  34.1014   C.2       1 RES1   0.0000
  1534 H4      45.9594  18.5793  34.4402   H         1 RES1   0.0000
  1535 C1      32.1525  22.6555  43.5216   C.2       1 RES1   0.0000
  1536 C2      32.9827  21.5657  44.3244   C.2       1 RES1   0.0000
  1537 C4      34.1014  21.1570  43.8282   C.2       1 RES1   0.0000
  1538 H4      34.4402  21.5129  43.0258   H         1 RES1   0.0000
  1539 C1      43.5216   7.7060  47.1020   C.2       1 RES1   0.0000
  1540 C2      44.3244   8.5362  46.0122   C.2       1 RES1   0.0000
  1541 C4      43.8282   9.6549  45.6035   C.2       1 RES1   0.0000
  1542 H4      43.0258   9.9937  45.9594   H         1 RES1   0.0000
  1543 Cu1     48.8930  18.8361  30.0569   Cu        1 RES1   0.0000
  1544 Cu1     48.8930   5.6104  43.2826   Cu        1 RES1   0.0000
  1545 Cu1     48.8930  43.2826  43.2826   Cu        1 RES1   0.0000
  1546 Cu2     48.8930  16.9561  31.9369   Cu        1 RES1   0.0000
  1547 Cu2     48.8930   7.4904  41.4026   Cu        1 RES1   0.0000
  1548 Cu2     48.8930  41.4026  41.4026   Cu        1 RES1   0.0000
  1549 O1      47.5201  31.1693  29.2478   O.co2     1 RES1   0.0000
  1550 O2      47.4844  32.7720  30.8324   O.co2     1 RES1   0.0000
  1551 O1       1.3729  19.6452  31.1693   O.co2     1 RES1   0.0000
  1552 O2       1.4086  18.0606  32.7720   O.co2     1 RES1   0.0000
  1553 O3       0.0000  20.4060  28.4870   O.2       1 RES1   0.0000
  1554 O4       0.0000  15.4238  33.4692   O.2       1 RES1   0.0000
  1555 C1       1.7910  19.0751  32.1525   C.2       1 RES1   0.0000
  1556 C2       2.8808  19.8779  32.9827   C.2       1 RES1   0.0000
  1557 C3       3.5174  20.9291  32.3144   C.2       1 RES1   0.0000
  1558 H3       3.2514  21.1951  31.4529   H         1 RES1   0.0000
  1559 C4       3.2895  19.3817  34.1014   C.2       1 RES1   0.0000
  1560 H4       2.9336  18.5793  34.4402   H         1 RES1   0.0000
  1561 C5       4.3270  20.1195  34.8167   C.2       1 RES1   0.0000
  1562 C6       4.8971  19.5494  36.0586   C.1       1 RES1   0.0000
  1563 C7       5.2413  19.2052  37.1342   C.1       1 RES1   0.0000
  1564 C8       5.7889  18.6576  38.2539   C.1       1 RES1   0.0000
  1565 C9       6.1410  18.3055  39.3344   C.1       1 RES1   0.0000
  1566 C10      6.6837  17.7628  40.5470   C.2       1 RES1   0.0000
  1567 C11      6.1556  16.5943  41.0408   C.2       1 RES1   0.0000
  1568 H11      5.4565  16.1494  40.5959   H         1 RES1   0.0000
  1569 C1       5.3714   7.7060  47.1020   C.2       1 RES1   0.0000
  1570 C2       4.5686   8.5362  46.0122   C.2       1 RES1   0.0000
  1571 C3       3.5174   7.8679  45.3756   C.2       1 RES1   0.0000
  1572 H3       3.2514   7.0064  45.6416   H         1 RES1   0.0000
  1573 C4       5.0648   9.6549  45.6035   C.2       1 RES1   0.0000
  1574 H4       5.8672   9.9937  45.9594   H         1 RES1   0.0000
  1575 C5       4.3270  10.3702  44.5660   C.2       1 RES1   0.0000
  1576 C6       4.8971  11.6121  43.9959   C.1       1 RES1   0.0000
  1577 C7       5.2413  12.6877  43.6517   C.1       1 RES1   0.0000
  1578 C8       5.7889  13.8074  43.1041   C.1       1 RES1   0.0000
  1579 C9       6.1410  14.8879  42.7520   C.1       1 RES1   0.0000
  1580 C10      6.6837  16.1005  42.2093   C.2       1 RES1   0.0000
  1581 C11      7.8522  16.5943  42.7374   C.2       1 RES1   0.0000
  1582 H11      8.2971  16.1494  43.4365   H         1 RES1   0.0000
  1583 C1      16.7405  22.6555  43.5216   C.2       1 RES1   0.0000
  1584 C2      15.9103  21.5657  44.3244   C.2       1 RES1   0.0000
  1585 C3      16.5786  20.9291  45.3756   C.2       1 RES1   0.0000
  1586 H3      17.4401  21.1951  45.6416   H         1 RES1   0.0000
  1587 C4      14.7916  21.1570  43.8282   C.2       1 RES1   0.0000
  1588 H4      14.4528  21.5129  43.0258   H         1 RES1   0.0000
  1589 C5      14.0763  20.1195  44.5660   C.2       1 RES1   0.0000
  1590 C6      12.8344  19.5494  43.9959   C.1       1 RES1   0.0000
  1591 C7      11.7588  19.2052  43.6517   C.1       1 RES1   0.0000
  1592 C8      10.6391  18.6576  43.1041   C.1       1 RES1   0.0000
  1593 C9       9.5586  18.3055  42.7520   C.1       1 RES1   0.0000
  1594 C10      8.3460  17.7628  42.2093   C.2       1 RES1   0.0000
  1595 C11      7.8522  18.2909  41.0408   C.2       1 RES1   0.0000
  1596 H11      8.2971  18.9900  40.5959   H         1 RES1   0.0000
  1597 C1       5.3714  22.6555  32.1525   C.2       1 RES1   0.0000
  1598 C2       4.5686  21.5657  32.9827   C.2       1 RES1   0.0000
  1599 C4       5.0648  21.1570  34.1014   C.2       1 RES1   0.0000
  1600 H4       5.8672  21.5129  34.4402   H         1 RES1   0.0000
  1601 O1       1.3729   6.7228  44.0917   O.co2     1 RES1   0.0000
  1602 O2       1.4086   8.3255  42.5071   O.co2     1 RES1   0.0000
  1603 C1       1.7910   7.7060  43.5216   C.2       1 RES1   0.0000
  1604 C2       2.8808   8.5362  44.3244   C.2       1 RES1   0.0000
  1605 C4       3.2895   9.6549  43.8282   C.2       1 RES1   0.0000
  1606 H4       2.9336   9.9937  43.0258   H         1 RES1   0.0000
  1607 C1      16.7405  19.0751  47.1020   C.2       1 RES1   0.0000
  1608 C2      15.9103  19.8779  46.0122   C.2       1 RES1   0.0000
  1609 C4      14.7916  19.3817  45.6035   C.2       1 RES1   0.0000
  1610 H4      14.4528  18.5793  45.9594   H         1 RES1   0.0000
  1611 O1       1.3729  17.7237  29.2478   O.co2     1 RES1   0.0000
  1612 O2       1.4086  16.1210  30.8324   O.co2     1 RES1   0.0000
  1613 O3      48.8930  20.4060  28.4870   O.2       1 RES1   0.0000
  1614 O4      48.8930  15.4238  33.4692   O.2       1 RES1   0.0000
  1615 O1      47.5201  17.7237  29.2478   O.co2     1 RES1   0.0000
  1616 O2      47.4844  16.1210  30.8324   O.co2     1 RES1   0.0000
  1617 C1       5.3714  26.2375  32.1525   C.2       1 RES1   0.0000
  1618 C2       4.5686  27.3273  32.9827   C.2       1 RES1   0.0000
  1619 C3       3.5174  27.9639  32.3144   C.2       1 RES1   0.0000
  1620 H3       3.2514  27.6979  31.4529   H         1 RES1   0.0000
  1621 C4       5.0648  27.7360  34.1014   C.2       1 RES1   0.0000
  1622 H4       5.8672  27.3801  34.4402   H         1 RES1   0.0000
  1623 C5       4.3270  28.7735  34.8167   C.2       1 RES1   0.0000
  1624 C6       4.8971  29.3436  36.0586   C.1       1 RES1   0.0000
  1625 C7       5.2413  29.6878  37.1342   C.1       1 RES1   0.0000
  1626 C8       5.7889  30.2354  38.2539   C.1       1 RES1   0.0000
  1627 C9       6.1410  30.5875  39.3344   C.1       1 RES1   0.0000
  1628 C10      6.6837  31.1302  40.5470   C.2       1 RES1   0.0000
  1629 C11      7.8522  30.6021  41.0408   C.2       1 RES1   0.0000
  1630 H11      8.2971  29.9030  40.5959   H         1 RES1   0.0000
  1631 C1      16.7405  29.8179  47.1020   C.2       1 RES1   0.0000
  1632 C2      15.9103  29.0151  46.0122   C.2       1 RES1   0.0000
  1633 C3      16.5786  27.9639  45.3756   C.2       1 RES1   0.0000
  1634 H3      17.4401  27.6979  45.6416   H         1 RES1   0.0000
  1635 C4      14.7916  29.5113  45.6035   C.2       1 RES1   0.0000
  1636 H4      14.4528  30.3137  45.9594   H         1 RES1   0.0000
  1637 C5      14.0763  28.7735  44.5660   C.2       1 RES1   0.0000
  1638 C6      12.8344  29.3436  43.9959   C.1       1 RES1   0.0000
  1639 C7      11.7588  29.6878  43.6517   C.1       1 RES1   0.0000
  1640 C8      10.6391  30.2354  43.1041   C.1       1 RES1   0.0000
  1641 C9       9.5586  30.5875  42.7520   C.1       1 RES1   0.0000
  1642 C10      8.3460  31.1302  42.2093   C.2       1 RES1   0.0000
  1643 C11      7.8522  32.2987  42.7374   C.2       1 RES1   0.0000
  1644 H11      8.2971  32.7436  43.4365   H         1 RES1   0.0000
  1645 O1       1.3729  42.1702  44.0917   O.co2     1 RES1   0.0000
  1646 O2       1.4086  40.5675  42.5071   O.co2     1 RES1   0.0000
  1647 C1       1.7910  41.1870  43.5216   C.2       1 RES1   0.0000
  1648 C2       2.8808  40.3568  44.3244   C.2       1 RES1   0.0000
  1649 C3       3.5174  41.0251  45.3756   C.2       1 RES1   0.0000
  1650 H3       3.2514  41.8866  45.6416   H         1 RES1   0.0000
  1651 C4       3.2895  39.2381  43.8282   C.2       1 RES1   0.0000
  1652 H4       2.9336  38.8993  43.0258   H         1 RES1   0.0000
  1653 C5       4.3270  38.5228  44.5660   C.2       1 RES1   0.0000
  1654 C6       4.8971  37.2809  43.9959   C.1       1 RES1   0.0000
  1655 C7       5.2413  36.2053  43.6517   C.1       1 RES1   0.0000
  1656 C8       5.7889  35.0856  43.1041   C.1       1 RES1   0.0000
  1657 C9       6.1410  34.0051  42.7520   C.1       1 RES1   0.0000
  1658 C10      6.6837  32.7925  42.2093   C.2       1 RES1   0.0000
  1659 C11      6.1556  32.2987  41.0408   C.2       1 RES1   0.0000
  1660 H11      5.4565  32.7436  40.5959   H         1 RES1   0.0000
  1661 C1       1.7910  29.8179  32.1525   C.2       1 RES1   0.0000
  1662 C2       2.8808  29.0151  32.9827   C.2       1 RES1   0.0000
  1663 C4       3.2895  29.5113  34.1014   C.2       1 RES1   0.0000
  1664 H4       2.9336  30.3137  34.4402   H         1 RES1   0.0000
  1665 C1      16.7405  26.2375  43.5216   C.2       1 RES1   0.0000
  1666 C2      15.9103  27.3273  44.3244   C.2       1 RES1   0.0000
  1667 C4      14.7916  27.7360  43.8282   C.2       1 RES1   0.0000
  1668 H4      14.4528  27.3801  43.0258   H         1 RES1   0.0000
  1669 C1       5.3714  41.1870  47.1020   C.2       1 RES1   0.0000
  1670 C2       4.5686  40.3568  46.0122   C.2       1 RES1   0.0000
  1671 C4       5.0648  39.2381  45.6035   C.2       1 RES1   0.0000
  1672 H4       5.8672  38.8993  45.9594   H         1 RES1   0.0000
  1673 Cu1      0.0000  43.2826   5.6104   Cu        1 RES1   0.0000
  1674 Cu2      0.0000  41.4026   7.4904   Cu        1 RES1   0.0000
  1675 O3       0.0000  44.8525   4.0405   O.2       1 RES1   0.0000
  1676 O4       0.0000  39.8703   9.0227   O.2       1 RES1   0.0000
  1677 Cu1      0.0000  30.0569  18.8361   Cu        1 RES1   0.0000
  1678 Cu2      0.0000  31.9369  16.9561   Cu        1 RES1   0.0000
  1679 O1       1.3729  44.0917   6.7228   O.co2     1 RES1   0.0000
  1680 O1       1.3729  42.1702   4.8013   O.co2     1 RES1   0.0000
  1681 O2       1.4086  42.5071   8.3255   O.co2     1 RES1   0.0000
  1682 O2       1.4086  40.5675   6.3859   O.co2     1 RES1   0.0000
  1683 Cu1     48.8930  43.2826   5.6104   Cu        1 RES1   0.0000
  1684 Cu2     48.8930  41.4026   7.4904   Cu        1 RES1   0.0000
  1685 O1      47.5201  42.1702   4.8013   O.co2     1 RES1   0.0000
  1686 O2      47.4844  40.5675   6.3859   O.co2     1 RES1   0.0000
  1687 O3      48.8930  44.8525   4.0405   O.2       1 RES1   0.0000
  1688 O4      48.8930  39.8703   9.0227   O.2       1 RES1   0.0000
  1689 C1      47.1020  41.1870   5.3714   C.2       1 RES1   0.0000
  1690 C2      46.0122  40.3568   4.5686   C.2       1 RES1   0.0000
  1691 C3      45.3756  41.0251   3.5174   C.2       1 RES1   0.0000
  1692 H3      45.6416  41.8866   3.2514   H         1 RES1   0.0000
  1693 C4      45.6035  39.2381   5.0648   C.2       1 RES1   0.0000
  1694 H4      45.9594  38.8993   5.8672   H         1 RES1   0.0000
  1695 C5      44.5660  38.5228   4.3270   C.2       1 RES1   0.0000
  1696 C6      43.9959  37.2809   4.8971   C.1       1 RES1   0.0000
  1697 C7      43.6517  36.2053   5.2413   C.1       1 RES1   0.0000
  1698 C8      43.1041  35.0856   5.7889   C.1       1 RES1   0.0000
  1699 C9      42.7520  34.0051   6.1410   C.1       1 RES1   0.0000
  1700 C10     42.2093  32.7925   6.6837   C.2       1 RES1   0.0000
  1701 C11     42.7374  32.2987   7.8522   C.2       1 RES1   0.0000
  1702 H11     43.4365  32.7436   8.2971   H         1 RES1   0.0000
  1703 C1      43.5216  26.2375  16.7405   C.2       1 RES1   0.0000
  1704 C2      44.3244  27.3273  15.9103   C.2       1 RES1   0.0000
  1705 C3      45.3756  27.9639  16.5786   C.2       1 RES1   0.0000
  1706 H3      45.6416  27.6979  17.4401   H         1 RES1   0.0000
  1707 C4      43.8282  27.7360  14.7916   C.2       1 RES1   0.0000
  1708 H4      43.0258  27.3801  14.4528   H         1 RES1   0.0000
  1709 C5      44.5660  28.7735  14.0763   C.2       1 RES1   0.0000
  1710 C6      43.9959  29.3436  12.8344   C.1       1 RES1   0.0000
  1711 C7      43.6517  29.6878  11.7588   C.1       1 RES1   0.0000
  1712 C8      43.1041  30.2354  10.6391   C.1       1 RES1   0.0000
  1713 C9      42.7520  30.5875   9.5586   C.1       1 RES1   0.0000
  1714 C10     42.2093  31.1302   8.3460   C.2       1 RES1   0.0000
  1715 C11     41.0408  30.6021   7.8522   C.2       1 RES1   0.0000
  1716 H11     40.5959  29.9030   8.2971   H         1 RES1   0.0000
  1717 C1      32.1525  29.8179   1.7910   C.2       1 RES1   0.0000
  1718 C2      32.9827  29.0151   2.8808   C.2       1 RES1   0.0000
  1719 C3      32.3144  27.9639   3.5174   C.2       1 RES1   0.0000
  1720 H3      31.4529  27.6979   3.2514   H         1 RES1   0.0000
  1721 C4      34.1014  29.5113   3.2895   C.2       1 RES1   0.0000
  1722 H4      34.4402  30.3137   2.9336   H         1 RES1   0.0000
  1723 C5      34.8167  28.7735   4.3270   C.2       1 RES1   0.0000
  1724 C6      36.0586  29.3436   4.8971   C.1       1 RES1   0.0000
  1725 C7      37.1342  29.6878   5.2413   C.1       1 RES1   0.0000
  1726 C8      38.2539  30.2354   5.7889   C.1       1 RES1   0.0000
  1727 C9      39.3344  30.5875   6.1410   C.1       1 RES1   0.0000
  1728 C10     40.5470  31.1302   6.6837   C.2       1 RES1   0.0000
  1729 C11     41.0408  32.2987   6.1556   C.2       1 RES1   0.0000
  1730 H11     40.5959  32.7436   5.4565   H         1 RES1   0.0000
  1731 C1      43.5216  41.1870   1.7910   C.2       1 RES1   0.0000
  1732 C2      44.3244  40.3568   2.8808   C.2       1 RES1   0.0000
  1733 C4      43.8282  39.2381   3.2895   C.2       1 RES1   0.0000
  1734 H4      43.0258  38.8993   2.9336   H         1 RES1   0.0000
  1735 O1      47.5201  29.2478  17.7237   O.co2     1 RES1   0.0000
  1736 O2      47.4844  30.8324  16.1210   O.co2     1 RES1   0.0000
  1737 C1      47.1020  29.8179  16.7405   C.2       1 RES1   0.0000
  1738 C2      46.0122  29.0151  15.9103   C.2       1 RES1   0.0000
  1739 C4      45.6035  29.5113  14.7916   C.2       1 RES1   0.0000
  1740 H4      45.9594  30.3137  14.4528   H         1 RES1   0.0000
  1741 C1      32.1525  26.2375   5.3714   C.2       1 RES1   0.0000
  1742 C2      32.9827  27.3273   4.5686   C.2       1 RES1   0.0000
  1743 C4      34.1014  27.7360   5.0648   C.2       1 RES1   0.0000
  1744 H4      34.4402  27.3801   5.8672   H         1 RES1   0.0000
  1745 Cu1     48.8930  30.0569  18.8361   Cu        1 RES1   0.0000
  1746 Cu2     48.8930  31.9369  16.9561   Cu        1 RES1   0.0000
  1747 O1      47.5201  44.0917   6.7228   O.co2     1 RES1   0.0000
  1748 O2      47.4844  42.5071   8.3255   O.co2     1 RES1   0.0000
  1749 Cu1      0.0000  18.8361  18.8361   Cu        1 RES1   0.0000
  1750 Cu2      0.0000  16.9561  16.9561   Cu        1 RES1   0.0000
  1751 O3       0.0000  20.4060  20.4060   O.2       1 RES1   0.0000
  1752 O4       0.0000  15.4238  15.4238   O.2       1 RES1   0.0000
  1753 Cu1      0.0000   5.6104   5.6104   Cu        1 RES1   0.0000
  1754 Cu2      0.0000   7.4904   7.4904   Cu        1 RES1   0.0000
  1755 O1       1.3729  17.7237  19.6452   O.co2     1 RES1   0.0000
  1756 O1       1.3729  19.6452  17.7237   O.co2     1 RES1   0.0000
  1757 O2       1.4086  16.1210  18.0606   O.co2     1 RES1   0.0000
  1758 O2       1.4086  18.0606  16.1210   O.co2     1 RES1   0.0000
  1759 Cu1     48.8930  18.8361  18.8361   Cu        1 RES1   0.0000
  1760 Cu2     48.8930  16.9561  16.9561   Cu        1 RES1   0.0000
  1761 O1      47.5201  19.6452  17.7237   O.co2     1 RES1   0.0000
  1762 O2      47.4844  18.0606  16.1210   O.co2     1 RES1   0.0000
  1763 O3      48.8930  20.4060  20.4060   O.2       1 RES1   0.0000
  1764 O4      48.8930  15.4238  15.4238   O.2       1 RES1   0.0000
  1765 C1      47.1020  19.0751  16.7405   C.2       1 RES1   0.0000
  1766 C2      46.0122  19.8779  15.9103   C.2       1 RES1   0.0000
  1767 C3      45.3756  20.9291  16.5786   C.2       1 RES1   0.0000
  1768 H3      45.6416  21.1951  17.4401   H         1 RES1   0.0000
  1769 C4      45.6035  19.3817  14.7916   C.2       1 RES1   0.0000
  1770 H4      45.9594  18.5793  14.4528   H         1 RES1   0.0000
  1771 C5      44.5660  20.1195  14.0763   C.2       1 RES1   0.0000
  1772 C6      43.9959  19.5494  12.8344   C.1       1 RES1   0.0000
  1773 C7      43.6517  19.2052  11.7588   C.1       1 RES1   0.0000
  1774 C8      43.1041  18.6576  10.6391   C.1       1 RES1   0.0000
  1775 C9      42.7520  18.3055   9.5586   C.1       1 RES1   0.0000
  1776 C10     42.2093  17.7628   8.3460   C.2       1 RES1   0.0000
  1777 C11     42.7374  16.5943   7.8522   C.2       1 RES1   0.0000
  1778 H11     43.4365  16.1494   8.2971   H         1 RES1   0.0000
  1779 C1      43.5216   7.7060   1.7910   C.2       1 RES1   0.0000
  1780 C2      44.3244   8.5362   2.8808   C.2       1 RES1   0.0000
  1781 C3      45.3756   7.8679   3.5174   C.2       1 RES1   0.0000
  1782 H3      45.6416   7.0064   3.2514   H         1 RES1   0.0000
  1783 C4      43.8282   9.6549   3.2895   C.2       1 RES1   0.0000
  1784 H4      43.0258   9.9937   2.9336   H         1 RES1   0.0000
  1785 C5      44.5660  10.3702   4.3270   C.2       1 RES1   0.0000
  1786 C6      43.9959  11.6121   4.8971   C.1       1 RES1   0.0000
  1787 C7      43.6517  12.6877   5.2413   C.1       1 RES1   0.0000
  1788 C8      43.1041  13.8074   5.7889   C.1       1 RES1   0.0000
  1789 C9      42.7520  14.8879   6.1410   C.1       1 RES1   0.0000
  1790 C10     42.2093  16.1005   6.6837   C.2       1 RES1   0.0000
  1791 C11     41.0408  16.5943   6.1556   C.2       1 RES1   0.0000
  1792 H11     40.5959  16.1494   5.4565   H         1 RES1   0.0000
  1793 C1      32.1525  22.6555   5.3714   C.2       1 RES1   0.0000
  1794 C2      32.9827  21.5657   4.5686   C.2       1 RES1   0.0000
  1795 C3      32.3144  20.9291   3.5174   C.2       1 RES1   0.0000
  1796 H3      31.4529  21.1951   3.2514   H         1 RES1   0.0000
  1797 C4      34.1014  21.1570   5.0648   C.2       1 RES1   0.0000
  1798 H4      34.4402  21.5129   5.8672   H         1 RES1   0.0000
  1799 C5      34.8167  20.1195   4.3270   C.2       1 RES1   0.0000
  1800 C6      36.0586  19.5494   4.8971   C.1       1 RES1   0.0000
  1801 C7      37.1342  19.2052   5.2413   C.1       1 RES1   0.0000
  1802 C8      38.2539  18.6576   5.7889   C.1       1 RES1   0.0000
  1803 C9      39.3344  18.3055   6.1410   C.1       1 RES1   0.0000
  1804 C10     40.5470  17.7628   6.6837   C.2       1 RES1   0.0000
  1805 C11     41.0408  18.2909   7.8522   C.2       1 RES1   0.0000
  1806 H11     40.5959  18.9900   8.2971   H         1 RES1   0.0000
  1807 C1      43.5216  22.6555  16.7405   C.2       1 RES1   0.0000
  1808 C2      44.3244  21.5657  15.9103   C.2       1 RES1   0.0000
  1809 C4      43.8282  21.1570  14.7916   C.2       1 RES1   0.0000
  1810 H4      43.0258  21.5129  14.4528   H         1 RES1   0.0000
  1811 O1      47.5201   6.7228   4.8013   O.co2     1 RES1   0.0000
  1812 O2      47.4844   8.3255   6.3859   O.co2     1 RES1   0.0000
  1813 C1      47.1020   7.7060   5.3714   C.2       1 RES1   0.0000
  1814 C2      46.0122   8.5362   4.5686   C.2       1 RES1   0.0000
  1815 C4      45.6035   9.6549   5.0648   C.2       1 RES1   0.0000
  1816 H4      45.9594   9.9937   5.8672   H         1 RES1   0.0000
  1817 C1      32.1525  19.0751   1.7910   C.2       1 RES1   0.0000
  1818 C2      32.9827  19.8779   2.8808   C.2       1 RES1   0.0000
  1819 C4      34.1014  19.3817   3.2895   C.2       1 RES1   0.0000
  1820 H4      34.4402  18.5793   2.9336   H         1 RES1   0.0000
  1821 Cu1     48.8930   5.6104   5.6104   Cu        1 RES1   0.0000
  1822 Cu2     48.8930   7.4904   7.4904   Cu        1 RES1   0.0000
  1823 O1      47.5201  17.7237  19.6452   O.co2     1 RES1   0.0000
  1824 O2      47.4844  16.1210  18.0606   O.co2     1 RES1   0.0000
  1825 O3       0.0000   4.0405  44.8525   O.2       1 RES1   0.0000
  1826 O4       0.0000   9.0227  39.8703   O.2       1 RES1   0.0000
  1827 O1       1.3729   4.8013  42.1702   O.co2     1 RES1   0.0000
  1828 O2       1.4086   6.3859  40.5675   O.co2     1 RES1   0.0000
  1829 O3      48.8930   4.0405  44.8525   O.2       1 RES1   0.0000
  1830 O4      48.8930   9.0227  39.8703   O.2       1 RES1   0.0000
  1831 O1      47.5201   4.8013  42.1702   O.co2     1 RES1   0.0000
  1832 O2      47.4844   6.3859  40.5675   O.co2     1 RES1   0.0000
  1833 O1       1.3729  29.2478  17.7237   O.co2     1 RES1   0.0000
  1834 O2       1.4086  30.8324  16.1210   O.co2     1 RES1   0.0000
  1835 O3       0.0000  28.4870  20.4060   O.2       1 RES1   0.0000
  1836 O4       0.0000  33.4692  15.4238   O.2       1 RES1   0.0000
  1837 C1       1.7910  29.8179  16.7405   C.2       1 RES1   0.0000
  1838 C2       2.8808  29.0151  15.9103   C.2       1 RES1   0.0000
  1839 C3       3.5174  27.9639  16.5786   C.2       1 RES1   0.0000
  1840 H3       3.2514  27.6979  17.4401   H         1 RES1   0.0000
  1841 C4       3.2895  29.5113  14.7916   C.2       1 RES1   0.0000
  1842 H4       2.9336  30.3137  14.4528   H         1 RES1   0.0000
  1843 C5       4.3270  28.7735  14.0763   C.2       1 RES1   0.0000
  1844 C6       4.8971  29.3436  12.8344   C.1       1 RES1   0.0000
  1845 C7       5.2413  29.6878  11.7588   C.1       1 RES1   0.0000
  1846 C8       5.7889  30.2354  10.6391   C.1       1 RES1   0.0000
  1847 C9       6.1410  30.5875   9.5586   C.1       1 RES1   0.0000
  1848 C10      6.6837  31.1302   8.3460   C.2       1 RES1   0.0000
  1849 C11      6.1556  32.2987   7.8522   C.2       1 RES1   0.0000
  1850 H11      5.4565  32.7436   8.2971   H         1 RES1   0.0000
  1851 C1       5.3714  41.1870   1.7910   C.2       1 RES1   0.0000
  1852 C2       4.5686  40.3568   2.8808   C.2       1 RES1   0.0000
  1853 C3       3.5174  41.0251   3.5174   C.2       1 RES1   0.0000
  1854 H3       3.2514  41.8866   3.2514   H         1 RES1   0.0000
  1855 C4       5.0648  39.2381   3.2895   C.2       1 RES1   0.0000
  1856 H4       5.8672  38.8993   2.9336   H         1 RES1   0.0000
  1857 C5       4.3270  38.5228   4.3270   C.2       1 RES1   0.0000
  1858 C6       4.8971  37.2809   4.8971   C.1       1 RES1   0.0000
  1859 C7       5.2413  36.2053   5.2413   C.1       1 RES1   0.0000
  1860 C8       5.7889  35.0856   5.7889   C.1       1 RES1   0.0000
  1861 C9       6.1410  34.0051   6.1410   C.1       1 RES1   0.0000
  1862 C10      6.6837  32.7925   6.6837   C.2       1 RES1   0.0000
  1863 C11      7.8522  32.2987   6.1556   C.2       1 RES1   0.0000
  1864 H11      8.2971  32.7436   5.4565   H         1 RES1   0.0000
  1865 C1      16.7405  26.2375   5.3714   C.2       1 RES1   0.0000
  1866 C2      15.9103  27.3273   4.5686   C.2       1 RES1   0.0000
  1867 C3      16.5786  27.9639   3.5174   C.2       1 RES1   0.0000
  1868 H3      17.4401  27.6979   3.2514   H         1 RES1   0.0000
  1869 C4      14.7916  27.7360   5.0648   C.2       1 RES1   0.0000
  1870 H4      14.4528  27.3801   5.8672   H         1 RES1   0.0000
  1871 C5      14.0763  28.7735   4.3270   C.2       1 RES1   0.0000
  1872 C6      12.8344  29.3436   4.8971   C.1       1 RES1   0.0000
  1873 C7      11.7588  29.6878   5.2413   C.1       1 RES1   0.0000
  1874 C8      10.6391  30.2354   5.7889   C.1       1 RES1   0.0000
  1875 C9       9.5586  30.5875   6.1410   C.1       1 RES1   0.0000
  1876 C10      8.3460  31.1302   6.6837   C.2       1 RES1   0.0000
  1877 C11      7.8522  30.6021   7.8522   C.2       1 RES1   0.0000
  1878 H11      8.2971  29.9030   8.2971   H         1 RES1   0.0000
  1879 C1       5.3714  26.2375  16.7405   C.2       1 RES1   0.0000
  1880 C2       4.5686  27.3273  15.9103   C.2       1 RES1   0.0000
  1881 C4       5.0648  27.7360  14.7916   C.2       1 RES1   0.0000
  1882 H4       5.8672  27.3801  14.4528   H         1 RES1   0.0000
  1883 C1       1.7910  41.1870   5.3714   C.2       1 RES1   0.0000
  1884 C2       2.8808  40.3568   4.5686   C.2       1 RES1   0.0000
  1885 C4       3.2895  39.2381   5.0648   C.2       1 RES1   0.0000
  1886 H4       2.9336  38.8993   5.8672   H         1 RES1   0.0000
  1887 C1      16.7405  29.8179   1.7910   C.2       1 RES1   0.0000
  1888 C2      15.9103  29.0151   2.8808   C.2       1 RES1   0.0000
  1889 C4      14.7916  29.5113   3.2895   C.2       1 RES1   0.0000
  1890 H4      14.4528  30.3137   2.9336   H         1 RES1   0.0000
  1891 C1       5.3714  22.6555  16.7405   C.2       1 RES1   0.0000
  1892 C2       4.5686  21.5657  15.9103   C.2       1 RES1   0.0000
  1893 C3       3.5174  20.9291  16.5786   C.2       1 RES1   0.0000
  1894 H3       3.2514  21.1951  17.4401   H         1 RES1   0.0000
  1895 C4       5.0648  21.1570  14.7916   C.2       1 RES1   0.0000
  1896 H4       5.8672  21.5129  14.4528   H         1 RES1   0.0000
  1897 C5       4.3270  20.1195  14.0763   C.2       1 RES1   0.0000
  1898 C6       4.8971  19.5494  12.8344   C.1       1 RES1   0.0000
  1899 C7       5.2413  19.2052  11.7588   C.1       1 RES1   0.0000
  1900 C8       5.7889  18.6576  10.6391   C.1       1 RES1   0.0000
  1901 C9       6.1410  18.3055   9.5586   C.1       1 RES1   0.0000
  1902 C10      6.6837  17.7628   8.3460   C.2       1 RES1   0.0000
  1903 C11      7.8522  18.2909   7.8522   C.2       1 RES1   0.0000
  1904 H11      8.2971  18.9900   8.2971   H         1 RES1   0.0000
  1905 C1      16.7405  19.0751   1.7910   C.2       1 RES1   0.0000
  1906 C2      15.9103  19.8779   2.8808   C.2       1 RES1   0.0000
  1907 C3      16.5786  20.9291   3.5174   C.2       1 RES1   0.0000
  1908 H3      17.4401  21.1951   3.2514   H         1 RES1   0.0000
  1909 C4      14.7916  19.3817   3.2895   C.2       1 RES1   0.0000
  1910 H4      14.4528  18.5793   2.9336   H         1 RES1   0.0000
  1911 C5      14.0763  20.1195   4.3270   C.2       1 RES1   0.0000
  1912 C6      12.8344  19.5494   4.8971   C.1       1 RES1   0.0000
  1913 C7      11.7588  19.2052   5.2413   C.1       1 RES1   0.0000
  1914 C8      10.6391  18.6576   5.7889   C.1       1 RES1   0.0000
  1915 C9       9.5586  18.3055   6.1410   C.1       1 RES1   0.0000
  1916 C10      8.3460  17.7628   6.6837   C.2       1 RES1   0.0000
  1917 C11      7.8522  16.5943   6.1556   C.2       1 RES1   0.0000
  1918 H11      8.2971  16.1494   5.4565   H         1 RES1   0.0000
  1919 O1       1.3729   6.7228   4.8013   O.co2     1 RES1   0.0000
  1920 O2       1.4086   8.3255   6.3859   O.co2     1 RES1   0.0000
  1921 C1       1.7910   7.7060   5.3714   C.2       1 RES1   0.0000
  1922 C2       2.8808   8.5362   4.5686   C.2       1 RES1   0.0000
  1923 C3       3.5174   7.8679   3.5174   C.2       1 RES1   0.0000
  1924 H3       3.2514   7.0064   3.2514   H         1 RES1   0.0000
  1925 C4       3.2895   9.6549   5.0648   C.2       1 RES1   0.0000
  1926 H4       2.9336   9.9937   5.8672   H         1 RES1   0.0000
  1927 C5       4.3270  10.3702   4.3270   C.2       1 RES1   0.0000
  1928 C6       4.8971  11.6121   4.8971   C.1       1 RES1   0.0000
  1929 C7       5.2413  12.6877   5.2413   C.1       1 RES1   0.0000
  1930 C8       5.7889  13.8074   5.7889   C.1       1 RES1   0.0000
  1931 C9       6.1410  14.8879   6.1410   C.1       1 RES1   0.0000
  1932 C10      6.6837  16.1005   6.6837   C.2       1 RES1   0.0000
  1933 C11      6.1556  16.5943   7.8522   C.2       1 RES1   0.0000
  1934 H11      5.4565  16.1494   8.2971   H         1 RES1   0.0000
  1935 C1       1.7910  19.0751  16.7405   C.2       1 RES1   0.0000
  1936 C2       2.8808  19.8779  15.9103   C.2       1 RES1   0.0000
  1937 C4       3.2895  19.3817  14.7916   C.2       1 RES1   0.0000
  1938 H4       2.9336  18.5793  14.4528   H         1 RES1   0.0000
  1939 C1      16.7405  22.6555   5.3714   C.2       1 RES1   0.0000
  1940 C2      15.9103  21.5657   4.5686   C.2       1 RES1   0.0000
  1941 C4      14.7916  21.1570   5.0648   C.2       1 RES1   0.0000
  1942 H4      14.4528  21.5129   5.8672   H         1 RES1   0.0000
  1943 C1       5.3714   7.7060   1.7910   C.2       1 RES1   0.0000
  1944 C2       4.5686   8.5362   2.8808   C.2       1 RES1   0.0000
  1945 C4       5.0648   9.6549   3.2895   C.2       1 RES1   0.0000
  1946 H4       5.8672   9.9937   2.9336   H         1 RES1   0.0000
  1947 O1       1.3729  31.1693  19.6452   O.co2     1 RES1   0.0000
  1948 O2       1.4086  32.7720  18.0606   O.co2     1 RES1   0.0000
  1949 O3      48.8930  28.4870  20.4060   O.2       1 RES1   0.0000
  1950 O4      48.8930  33.4692  15.4238   O.2       1 RES1   0.0000
  1951 O1      47.5201  31.1693  19.6452   O.co2     1 RES1   0.0000
  1952 O2      47.4844  32.7720  18.0606   O.co2     1 RES1   0.0000
  1953 O3       0.0000  44.8525  44.8525   O.2       1 RES1   0.0000
  1954 O4       0.0000  39.8703  39.8703   O.2       1 RES1   0.0000
  1955 O1       1.3729  44.0917  42.1702   O.co2     1 RES1   0.0000
  1956 O2       1.4086  42.5071  40.5675   O.co2     1 RES1   0.0000
  1957 O3      48.8930  44.8525  44.8525   O.2       1 RES1   0.0000
  1958 O4      48.8930  39.8703  39.8703   O.2       1 RES1   0.0000
  1959 O1      47.5201  44.0917  42.1702   O.co2     1 RES1   0.0000
  1960 O2      47.4844  42.5071  40.5675   O.co2     1 RES1   0.0000
  1961 O3       0.0000   4.0405   4.0405   O.2       1 RES1   0.0000
  1962 O4       0.0000   9.0227   9.0227   O.2       1 RES1   0.0000
  1963 O1       1.3729   4.8013   6.7228   O.co2     1 RES1   0.0000
  1964 O2       1.4086   6.3859   8.3255   O.co2     1 RES1   0.0000
  1965 O3      48.8930   4.0405   4.0405   O.2       1 RES1   0.0000
  1966 O4      48.8930   9.0227   9.0227   O.2       1 RES1   0.0000
  1967 O1      47.5201   4.8013   6.7228   O.co2     1 RES1   0.0000
  1968 O2      47.4844   6.3859   8.3255   O.co2     1 RES1   0.0000
  1969 C1      47.1020   5.3714   7.7060   C.2       1 RES1   0.0000
  1970 C2      46.0122   4.5686   8.5362   C.2       1 RES1   0.0000
  1971 C3      45.3756   3.5174   7.8679   C.2       1 RES1   0.0000
  1972 H3      45.6416   3.2514   7.0064   H         1 RES1   0.0000
  1973 C4      45.6035   5.0648   9.6549   C.2       1 RES1   0.0000
  1974 H4      45.9594   5.8672   9.9937   H         1 RES1   0.0000
  1975 C5      44.5660   4.3270  10.3702   C.2       1 RES1   0.0000
  1976 C6      43.9959   4.8971  11.6121   C.1       1 RES1   0.0000
  1977 C7      43.6517   5.2413  12.6877   C.1       1 RES1   0.0000
  1978 C8      43.1041   5.7889  13.8074   C.1       1 RES1   0.0000
  1979 C9      42.7520   6.1410  14.8879   C.1       1 RES1   0.0000
  1980 C10     42.2093   6.6837  16.1005   C.2       1 RES1   0.0000
  1981 C11     42.7374   7.8522  16.5943   C.2       1 RES1   0.0000
  1982 H11     43.4365   8.2971  16.1494   H         1 RES1   0.0000
  1983 C1      43.5216  16.7405  22.6555   C.2       1 RES1   0.0000
  1984 C2      44.3244  15.9103  21.5657   C.2       1 RES1   0.0000
  1985 C3      45.3756  16.5786  20.9291   C.2       1 RES1   0.0000
  1986 H3      45.6416  17.4401  21.1951   H         1 RES1   0.0000
  1987 C4      43.8282  14.7916  21.1570   C.2       1 RES1   0.0000
  1988 H4      43.0258  14.4528  21.5129   H         1 RES1   0.0000
  1989 C5      44.5660  14.0763  20.1195   C.2       1 RES1   0.0000
  1990 C6      43.9959  12.8344  19.5494   C.1       1 RES1   0.0000
  1991 C7      43.6517  11.7588  19.2052   C.1       1 RES1   0.0000
  1992 C8      43.1041  10.6391  18.6576   C.1       1 RES1   0.0000
  1993 C9      42.7520   9.5586  18.3055   C.1       1 RES1   0.0000
  1994 C10     42.2093   8.3460  17.7628   C.2       1 RES1   0.0000
  1995 C11     41.0408   7.8522  18.2909   C.2       1 RES1   0.0000
  1996 H11     40.5959   8.2971  18.9900   H         1 RES1   0.0000
  1997 C1      32.1525   1.7910  19.0751   C.2       1 RES1   0.0000
  1998 C2      32.9827   2.8808  19.8779   C.2       1 RES1   0.0000
  1999 C3      32.3144   3.5174  20.9291   C.2       1 RES1   0.0000
  2000 H3      31.4529   3.2514  21.1951   H         1 RES1   0.0000
  2001 C4      34.1014   3.2895  19.3817   C.2       1 RES1   0.0000
  2002 H4      34.4402   2.9336  18.5793   H         1 RES1   0.0000
  2003 C5      34.8167   4.3270  20.1195   C.2       1 RES1   0.0000
  2004 C6      36.0586   4.8971  19.5494   C.1       1 RES1   0.0000
  2005 C7      37.1342   5.2413  19.2052   C.1       1 RES1   0.0000
  2006 C8      38.2539   5.7889  18.6576   C.1       1 RES1   0.0000
  2007 C9      39.3344   6.1410  18.3055   C.1       1 RES1   0.0000
  2008 C10     40.5470   6.6837  17.7628   C.2       1 RES1   0.0000
  2009 C11     41.0408   6.1556  16.5943   C.2       1 RES1   0.0000
  2010 H11     40.5959   5.4565  16.1494   H         1 RES1   0.0000
  2011 C1      43.5216   1.7910   7.7060   C.2       1 RES1   0.0000
  2012 C2      44.3244   2.8808   8.5362   C.2       1 RES1   0.0000
  2013 C4      43.8282   3.2895   9.6549   C.2       1 RES1   0.0000
  2014 H4      43.0258   2.9336   9.9937   H         1 RES1   0.0000
  2015 C1      47.1020  16.7405  19.0751   C.2       1 RES1   0.0000
  2016 C2      46.0122  15.9103  19.8779   C.2       1 RES1   0.0000
  2017 C4      45.6035  14.7916  19.3817   C.2       1 RES1   0.0000
  2018 H4      45.9594  14.4528  18.5793   H         1 RES1   0.0000
  2019 C1      32.1525   5.3714  22.6555   C.2       1 RES1   0.0000
  2020 C2      32.9827   4.5686  21.5657   C.2       1 RES1   0.0000
  2021 C4      34.1014   5.0648  21.1570   C.2       1 RES1   0.0000
  2022 H4      34.4402   5.8672  21.5129   H         1 RES1   0.0000
  2023 C1      43.5216  47.1020   7.7060   C.2       1 RES1   0.0000
  2024 C2      44.3244  46.0122   8.5362   C.2       1 RES1   0.0000
  2025 C3      45.3756  45.3756   7.8679   C.2       1 RES1   0.0000
  2026 H3      45.6416  45.6416   7.0064   H         1 RES1   0.0000
  2027 C4      43.8282  45.6035   9.6549   C.2       1 RES1   0.0000
  2028 H4      43.0258  45.9594   9.9937   H         1 RES1   0.0000
  2029 C5      44.5660  44.5660  10.3702   C.2       1 RES1   0.0000
  2030 C6      43.9959  43.9959  11.6121   C.1       1 RES1   0.0000
  2031 C7      43.6517  43.6517  12.6877   C.1       1 RES1   0.0000
  2032 C8      43.1041  43.1041  13.8074   C.1       1 RES1   0.0000
  2033 C9      42.7520  42.7520  14.8879   C.1       1 RES1   0.0000
  2034 C10     42.2093  42.2093  16.1005   C.2       1 RES1   0.0000
  2035 C11     41.0408  42.7374  16.5943   C.2       1 RES1   0.0000
  2036 H11     40.5959  43.4365  16.1494   H         1 RES1   0.0000
  2037 C1      32.1525  43.5216  22.6555   C.2       1 RES1   0.0000
  2038 C2      32.9827  44.3244  21.5657   C.2       1 RES1   0.0000
  2039 C3      32.3144  45.3756  20.9291   C.2       1 RES1   0.0000
  2040 H3      31.4529  45.6416  21.1951   H         1 RES1   0.0000
  2041 C4      34.1014  43.8282  21.1570   C.2       1 RES1   0.0000
  2042 H4      34.4402  43.0258  21.5129   H         1 RES1   0.0000
  2043 C5      34.8167  44.5660  20.1195   C.2       1 RES1   0.0000
  2044 C6      36.0586  43.9959  19.5494   C.1       1 RES1   0.0000
  2045 C7      37.1342  43.6517  19.2052   C.1       1 RES1   0.0000
  2046 C8      38.2539  43.1041  18.6576   C.1       1 RES1   0.0000
  2047 C9      39.3344  42.7520  18.3055   C.1       1 RES1   0.0000
  2048 C10     40.5470  42.2093  17.7628   C.2       1 RES1   0.0000
  2049 C11     41.0408  41.0408  18.2909   C.2       1 RES1   0.0000
  2050 H11     40.5959  40.5959  18.9900   H         1 RES1   0.0000
  2051 C1      47.1020  32.1525  19.0751   C.2       1 RES1   0.0000
  2052 C2      46.0122  32.9827  19.8779   C.2       1 RES1   0.0000
  2053 C3      45.3756  32.3144  20.9291   C.2       1 RES1   0.0000
  2054 H3      45.6416  31.4529  21.1951   H         1 RES1   0.0000
  2055 C4      45.6035  34.1014  19.3817   C.2       1 RES1   0.0000
  2056 H4      45.9594  34.4402  18.5793   H         1 RES1   0.0000
  2057 C5      44.5660  34.8167  20.1195   C.2       1 RES1   0.0000
  2058 C6      43.9959  36.0586  19.5494   C.1       1 RES1   0.0000
  2059 C7      43.6517  37.1342  19.2052   C.1       1 RES1   0.0000
  2060 C8      43.1041  38.2539  18.6576   C.1       1 RES1   0.0000
  2061 C9      42.7520  39.3344  18.3055   C.1       1 RES1   0.0000
  2062 C10     42.2093  40.5470  17.7628   C.2       1 RES1   0.0000
  2063 C11     42.7374  41.0408  16.5943   C.2       1 RES1   0.0000
  2064 H11     43.4365  40.5959  16.1494   H         1 RES1   0.0000
  2065 C1      47.1020  43.5216   7.7060   C.2       1 RES1   0.0000
  2066 C2      46.0122  44.3244   8.5362   C.2       1 RES1   0.0000
  2067 C4      45.6035  43.8282   9.6549   C.2       1 RES1   0.0000
  2068 H4      45.9594  43.0258   9.9937   H         1 RES1   0.0000
  2069 C1      32.1525  47.1020  19.0751   C.2       1 RES1   0.0000
  2070 C2      32.9827  46.0122  19.8779   C.2       1 RES1   0.0000
  2071 C4      34.1014  45.6035  19.3817   C.2       1 RES1   0.0000
  2072 H4      34.4402  45.9594  18.5793   H         1 RES1   0.0000
  2073 C1      43.5216  32.1525  22.6555   C.2       1 RES1   0.0000
  2074 C2      44.3244  32.9827  21.5657   C.2       1 RES1   0.0000
  2075 C4      43.8282  34.1014  21.1570   C.2       1 RES1   0.0000
  2076 H4      43.0258  34.4402  21.5129   H         1 RES1   0.0000
  2077 C1       1.7910  43.5216   7.7060   C.2       1 RES1   0.0000
  2078 C2       2.8808  44.3244   8.5362   C.2       1 RES1   0.0000
  2079 C3       3.5174  45.3756   7.8679   C.2       1 RES1   0.0000
  2080 H3       3.2514  45.6416   7.0064   H         1 RES1   0.0000
  2081 C4       3.2895  43.8282   9.6549   C.2       1 RES1   0.0000
  2082 H4       2.9336  43.0258   9.9937   H         1 RES1   0.0000
  2083 C5       4.3270  44.5660  10.3702   C.2       1 RES1   0.0000
  2084 C6       4.8971  43.9959  11.6121   C.1       1 RES1   0.0000
  2085 C7       5.2413  43.6517  12.6877   C.1       1 RES1   0.0000
  2086 C8       5.7889  43.1041  13.8074   C.1       1 RES1   0.0000
  2087 C9       6.1410  42.7520  14.8879   C.1       1 RES1   0.0000
  2088 C10      6.6837  42.2093  16.1005   C.2       1 RES1   0.0000
  2089 C11      6.1556  41.0408  16.5943   C.2       1 RES1   0.0000
  2090 H11      5.4565  40.5959  16.1494   H         1 RES1   0.0000
  2091 C1       5.3714  32.1525  22.6555   C.2       1 RES1   0.0000
  2092 C2       4.5686  32.9827  21.5657   C.2       1 RES1   0.0000
  2093 C3       3.5174  32.3144  20.9291   C.2       1 RES1   0.0000
  2094 H3       3.2514  31.4529  21.1951   H         1 RES1   0.0000
  2095 C4       5.0648  34.1014  21.1570   C.2       1 RES1   0.0000
  2096 H4       5.8672  34.4402  21.5129   H         1 RES1   0.0000
  2097 C5       4.3270  34.8167  20.1195   C.2       1 RES1   0.0000
  2098 C6       4.8971  36.0586  19.5494   C.1       1 RES1   0.0000
  2099 C7       5.2413  37.1342  19.2052   C.1       1 RES1   0.0000
  2100 C8       5.7889  38.2539  18.6576   C.1       1 RES1   0.0000
  2101 C9       6.1410  39.3344  18.3055   C.1       1 RES1   0.0000
  2102 C10      6.6837  40.5470  17.7628   C.2       1 RES1   0.0000
  2103 C11      7.8522  41.0408  18.2909   C.2       1 RES1   0.0000
  2104 H11      8.2971  40.5959  18.9900   H         1 RES1   0.0000
  2105 C1      16.7405  47.1020  19.0751   C.2       1 RES1   0.0000
  2106 C2      15.9103  46.0122  19.8779   C.2       1 RES1   0.0000
  2107 C3      16.5786  45.3756  20.9291   C.2       1 RES1   0.0000
  2108 H3      17.4401  45.6416  21.1951   H         1 RES1   0.0000
  2109 C4      14.7916  45.6035  19.3817   C.2       1 RES1   0.0000
  2110 H4      14.4528  45.9594  18.5793   H         1 RES1   0.0000
  2111 C5      14.0763  44.5660  20.1195   C.2       1 RES1   0.0000
  2112 C6      12.8344  43.9959  19.5494   C.1       1 RES1   0.0000
  2113 C7      11.7588  43.6517  19.2052   C.1       1 RES1   0.0000
  2114 C8      10.6391  43.1041  18.6576   C.1       1 RES1   0.0000
  2115 C9       9.5586  42.7520  18.3055   C.1       1 RES1   0.0000
  2116 C10      8.3460  42.2093  17.7628   C.2       1 RES1   0.0000
  2117 C11      7.8522  42.7374  16.5943   C.2       1 RES1   0.0000
  2118 H11      8.2971  43.4365  16.1494   H         1 RES1   0.0000
  2119 C1       5.3714  47.1020   7.7060   C.2       1 RES1   0.0000
  2120 C2       4.5686  46.0122   8.5362   C.2       1 RES1   0.0000
  2121 C4       5.0648  45.6035   9.6549   C.2       1 RES1   0.0000
  2122 H4       5.8672  45.9594   9.9937   H         1 RES1   0.0000
  2123 C1       1.7910  32.1525  19.0751   C.2       1 RES1   0.0000
  2124 C2       2.8808  32.9827  19.8779   C.2       1 RES1   0.0000
  2125 C4       3.2895  34.1014  19.3817   C.2       1 RES1   0.0000
  2126 H4       2.9336  34.4402  18.5793   H         1 RES1   0.0000
  2127 C1      16.7405  43.5216  22.6555   C.2       1 RES1   0.0000
  2128 C2      15.9103  44.3244  21.5657   C.2       1 RES1   0.0000
  2129 C4      14.7916  43.8282  21.1570   C.2       1 RES1   0.0000
  2130 H4      14.4528  43.0258  21.5129   H         1 RES1   0.0000
  2131 C1       5.3714   1.7910   7.7060   C.2       1 RES1   0.0000
  2132 C2       4.5686   2.8808   8.5362   C.2       1 RES1   0.0000
  2133 C3       3.5174   3.5174   7.8679   C.2       1 RES1   0.0000
  2134 H3       3.2514   3.2514   7.0064   H         1 RES1   0.0000
  2135 C4       5.0648   3.2895   9.6549   C.2       1 RES1   0.0000
  2136 H4       5.8672   2.9336   9.9937   H         1 RES1   0.0000
  2137 C5       4.3270   4.3270  10.3702   C.2       1 RES1   0.0000
  2138 C6       4.8971   4.8971  11.6121   C.1       1 RES1   0.0000
  2139 C7       5.2413   5.2413  12.6877   C.1       1 RES1   0.0000
  2140 C8       5.7889   5.7889  13.8074   C.1       1 RES1   0.0000
  2141 C9       6.1410   6.1410  14.8879   C.1       1 RES1   0.0000
  2142 C10      6.6837   6.6837  16.1005   C.2       1 RES1   0.0000
  2143 C11      7.8522   6.1556  16.5943   C.2       1 RES1   0.0000
  2144 H11      8.2971   5.4565  16.1494   H         1 RES1   0.0000
  2145 C1      16.7405   5.3714  22.6555   C.2       1 RES1   0.0000
  2146 C2      15.9103   4.5686  21.5657   C.2       1 RES1   0.0000
  2147 C3      16.5786   3.5174  20.9291   C.2       1 RES1   0.0000
  2148 H3      17.4401   3.2514  21.1951   H         1 RES1   0.0000
  2149 C4      14.7916   5.0648  21.1570   C.2       1 RES1   0.0000
  2150 H4      14.4528   5.8672  21.5129   H         1 RES1   0.0000
  2151 C5      14.0763   4.3270  20.1195   C.2       1 RES1   0.0000
  2152 C6      12.8344   4.8971  19.5494   C.1       1 RES1   0.0000
  2153 C7      11.7588   5.2413  19.2052   C.1       1 RES1   0.0000
  2154 C8      10.6391   5.7889  18.6576   C.1       1 RES1   0.0000
  2155 C9       9.5586   6.1410  18.3055   C.1       1 RES1   0.0000
  2156 C10      8.3460   6.6837  17.7628   C.2       1 RES1   0.0000
  2157 C11      7.8522   7.8522  18.2909   C.2       1 RES1   0.0000
  2158 H11      8.2971   8.2971  18.9900   H         1 RES1   0.0000
  2159 C1       1.7910  16.7405  19.0751   C.2       1 RES1   0.0000
  2160 C2       2.8808  15.9103  19.8779   C.2       1 RES1   0.0000
  2161 C3       3.5174  16.5786  20.9291   C.2       1 RES1   0.0000
  2162 H3       3.2514  17.4401  21.1951   H         1 RES1   0.0000
  2163 C4       3.2895  14.7916  19.3817   C.2       1 RES1   0.0000
  2164 H4       2.9336  14.4528  18.5793   H         1 RES1   0.0000
  2165 C5       4.3270  14.0763  20.1195   C.2       1 RES1   0.0000
  2166 C6       4.8971  12.8344  19.5494   C.1       1 RES1   0.0000
  2167 C7       5.2413  11.7588  19.2052   C.1       1 RES1   0.0000
  2168 C8       5.7889  10.6391  18.6576   C.1       1 RES1   0.0000
  2169 C9       6.1410   9.5586  18.3055   C.1       1 RES1   0.0000
  2170 C10      6.6837   8.3460  17.7628   C.2       1 RES1   0.0000
  2171 C11      6.1556   7.8522  16.5943   C.2       1 RES1   0.0000
  2172 H11      5.4565   8.2971  16.1494   H         1 RES1   0.0000
  2173 C1       1.7910   5.3714   7.7060   C.2       1 RES1   0.0000
  2174 C2       2.8808   4.5686   8.5362   C.2       1 RES1   0.0000
  2175 C4       3.2895   5.0648   9.6549   C.2       1 RES1   0.0000
  2176 H4       2.9336   5.8672   9.9937   H         1 RES1   0.0000
  2177 C1      16.7405   1.7910  19.0751   C.2       1 RES1   0.0000
  2178 C2      15.9103   2.8808  19.8779   C.2       1 RES1   0.0000
  2179 C4      14.7916   3.2895  19.3817   C.2       1 RES1   0.0000
  2180 H4      14.4528   2.9336  18.5793   H         1 RES1   0.0000
  2181 C1       5.3714  16.7405  22.6555   C.2       1 RES1   0.0000
  2182 C2       4.5686  15.9103  21.5657   C.2       1 RES1   0.0000
  2183 C4       5.0648  14.7916  21.1570   C.2       1 RES1   0.0000
  2184 H4       5.8672  14.4528  21.5129   H         1 RES1   0.0000
  2185 C1      47.1020  16.7405  29.8179   C.2       1 RES1   0.0000
  2186 C2      46.0122  15.9103  29.0151   C.2       1 RES1   0.0000
  2187 C3      45.3756  16.5786  27.9639   C.2       1 RES1   0.0000
  2188 H3      45.6416  17.4401  27.6979   H         1 RES1   0.0000
  2189 C4      45.6035  14.7916  29.5113   C.2       1 RES1   0.0000
  2190 H4      45.9594  14.4528  30.3137   H         1 RES1   0.0000
  2191 C5      44.5660  14.0763  28.7735   C.2       1 RES1   0.0000
  2192 C6      43.9959  12.8344  29.3436   C.1       1 RES1   0.0000
  2193 C7      43.6517  11.7588  29.6878   C.1       1 RES1   0.0000
  2194 C8      43.1041  10.6391  30.2354   C.1       1 RES1   0.0000
  2195 C9      42.7520   9.5586  30.5875   C.1       1 RES1   0.0000
  2196 C10     42.2093   8.3460  31.1302   C.2       1 RES1   0.0000
  2197 C11     42.7374   7.8522  32.2987   C.2       1 RES1   0.0000
  2198 H11     43.4365   8.2971  32.7436   H         1 RES1   0.0000
  2199 C1      43.5216   1.7910  41.1870   C.2       1 RES1   0.0000
  2200 C2      44.3244   2.8808  40.3568   C.2       1 RES1   0.0000
  2201 C3      45.3756   3.5174  41.0251   C.2       1 RES1   0.0000
  2202 H3      45.6416   3.2514  41.8866   H         1 RES1   0.0000
  2203 C4      43.8282   3.2895  39.2381   C.2       1 RES1   0.0000
  2204 H4      43.0258   2.9336  38.8993   H         1 RES1   0.0000
  2205 C5      44.5660   4.3270  38.5228   C.2       1 RES1   0.0000
  2206 C6      43.9959   4.8971  37.2809   C.1       1 RES1   0.0000
  2207 C7      43.6517   5.2413  36.2053   C.1       1 RES1   0.0000
  2208 C8      43.1041   5.7889  35.0856   C.1       1 RES1   0.0000
  2209 C9      42.7520   6.1410  34.0051   C.1       1 RES1   0.0000
  2210 C10     42.2093   6.6837  32.7925   C.2       1 RES1   0.0000
  2211 C11     41.0408   6.1556  32.2987   C.2       1 RES1   0.0000
  2212 H11     40.5959   5.4565  32.7436   H         1 RES1   0.0000
  2213 C1      32.1525   5.3714  26.2375   C.2       1 RES1   0.0000
  2214 C2      32.9827   4.5686  27.3273   C.2       1 RES1   0.0000
  2215 C3      32.3144   3.5174  27.9639   C.2       1 RES1   0.0000
  2216 H3      31.4529   3.2514  27.6979   H         1 RES1   0.0000
  2217 C4      34.1014   5.0648  27.7360   C.2       1 RES1   0.0000
  2218 H4      34.4402   5.8672  27.3801   H         1 RES1   0.0000
  2219 C5      34.8167   4.3270  28.7735   C.2       1 RES1   0.0000
  2220 C6      36.0586   4.8971  29.3436   C.1       1 RES1   0.0000
  2221 C7      37.1342   5.2413  29.6878   C.1       1 RES1   0.0000
  2222 C8      38.2539   5.7889  30.2354   C.1       1 RES1   0.0000
  2223 C9      39.3344   6.1410  30.5875   C.1       1 RES1   0.0000
  2224 C10     40.5470   6.6837  31.1302   C.2       1 RES1   0.0000
  2225 C11     41.0408   7.8522  30.6021   C.2       1 RES1   0.0000
  2226 H11     40.5959   8.2971  29.9030   H         1 RES1   0.0000
  2227 C1      43.5216  16.7405  26.2375   C.2       1 RES1   0.0000
  2228 C2      44.3244  15.9103  27.3273   C.2       1 RES1   0.0000
  2229 C4      43.8282  14.7916  27.7360   C.2       1 RES1   0.0000
  2230 H4      43.0258  14.4528  27.3801   H         1 RES1   0.0000
  2231 C1      47.1020   5.3714  41.1870   C.2       1 RES1   0.0000
  2232 C2      46.0122   4.5686  40.3568   C.2       1 RES1   0.0000
  2233 C4      45.6035   5.0648  39.2381   C.2       1 RES1   0.0000
  2234 H4      45.9594   5.8672  38.8993   H         1 RES1   0.0000
  2235 C1      32.1525   1.7910  29.8179   C.2       1 RES1   0.0000
  2236 C2      32.9827   2.8808  29.0151   C.2       1 RES1   0.0000
  2237 C4      34.1014   3.2895  29.5113   C.2       1 RES1   0.0000
  2238 H4      34.4402   2.9336  30.3137   H         1 RES1   0.0000
  2239 C1      47.1020  43.5216  41.1870   C.2       1 RES1   0.0000
  2240 C2      46.0122  44.3244  40.3568   C.2       1 RES1   0.0000
  2241 C3      45.3756  45.3756  41.0251   C.2       1 RES1   0.0000
  2242 H3      45.6416  45.6416  41.8866   H         1 RES1   0.0000
  2243 C4      45.6035  43.8282  39.2381   C.2       1 RES1   0.0000
  2244 H4      45.9594  43.0258  38.8993   H         1 RES1   0.0000
  2245 C5      44.5660  44.5660  38.5228   C.2       1 RES1   0.0000
  2246 C6      43.9959  43.9959  37.2809   C.1       1 RES1   0.0000
  2247 C7      43.6517  43.6517  36.2053   C.1       1 RES1   0.0000
  2248 C8      43.1041  43.1041  35.0856   C.1       1 RES1   0.0000
  2249 C9      42.7520  42.7520  34.0051   C.1       1 RES1   0.0000
  2250 C10     42.2093  42.2093  32.7925   C.2       1 RES1   0.0000
  2251 C11     42.7374  41.0408  32.2987   C.2       1 RES1   0.0000
  2252 H11     43.4365  40.5959  32.7436   H         1 RES1   0.0000
  2253 C1      43.5216  32.1525  26.2375   C.2       1 RES1   0.0000
  2254 C2      44.3244  32.9827  27.3273   C.2       1 RES1   0.0000
  2255 C3      45.3756  32.3144  27.9639   C.2       1 RES1   0.0000
  2256 H3      45.6416  31.4529  27.6979   H         1 RES1   0.0000
  2257 C4      43.8282  34.1014  27.7360   C.2       1 RES1   0.0000
  2258 H4      43.0258  34.4402  27.3801   H         1 RES1   0.0000
  2259 C5      44.5660  34.8167  28.7735   C.2       1 RES1   0.0000
  2260 C6      43.9959  36.0586  29.3436   C.1       1 RES1   0.0000
  2261 C7      43.6517  37.1342  29.6878   C.1       1 RES1   0.0000
  2262 C8      43.1041  38.2539  30.2354   C.1       1 RES1   0.0000
  2263 C9      42.7520  39.3344  30.5875   C.1       1 RES1   0.0000
  2264 C10     42.2093  40.5470  31.1302   C.2       1 RES1   0.0000
  2265 C11     41.0408  41.0408  30.6021   C.2       1 RES1   0.0000
  2266 H11     40.5959  40.5959  29.9030   H         1 RES1   0.0000
  2267 C1      32.1525  47.1020  29.8179   C.2       1 RES1   0.0000
  2268 C2      32.9827  46.0122  29.0151   C.2       1 RES1   0.0000
  2269 C3      32.3144  45.3756  27.9639   C.2       1 RES1   0.0000
  2270 H3      31.4529  45.6416  27.6979   H         1 RES1   0.0000
  2271 C4      34.1014  45.6035  29.5113   C.2       1 RES1   0.0000
  2272 H4      34.4402  45.9594  30.3137   H         1 RES1   0.0000
  2273 C5      34.8167  44.5660  28.7735   C.2       1 RES1   0.0000
  2274 C6      36.0586  43.9959  29.3436   C.1       1 RES1   0.0000
  2275 C7      37.1342  43.6517  29.6878   C.1       1 RES1   0.0000
  2276 C8      38.2539  43.1041  30.2354   C.1       1 RES1   0.0000
  2277 C9      39.3344  42.7520  30.5875   C.1       1 RES1   0.0000
  2278 C10     40.5470  42.2093  31.1302   C.2       1 RES1   0.0000
  2279 C11     41.0408  42.7374  32.2987   C.2       1 RES1   0.0000
  2280 H11     40.5959  43.4365  32.7436   H         1 RES1   0.0000
  2281 C1      43.5216  47.1020  41.1870   C.2       1 RES1   0.0000
  2282 C2      44.3244  46.0122  40.3568   C.2       1 RES1   0.0000
  2283 C4      43.8282  45.6035  39.2381   C.2       1 RES1   0.0000
  2284 H4      43.0258  45.9594  38.8993   H         1 RES1   0.0000
  2285 C1      47.1020  32.1525  29.8179   C.2       1 RES1   0.0000
  2286 C2      46.0122  32.9827  29.0151   C.2       1 RES1   0.0000
  2287 C4      45.6035  34.1014  29.5113   C.2       1 RES1   0.0000
  2288 H4      45.9594  34.4402  30.3137   H         1 RES1   0.0000
  2289 C1      32.1525  43.5216  26.2375   C.2       1 RES1   0.0000
  2290 C2      32.9827  44.3244  27.3273   C.2       1 RES1   0.0000
  2291 C4      34.1014  43.8282  27.7360   C.2       1 RES1   0.0000
  2292 H4      34.4402  43.0258  27.3801   H         1 RES1   0.0000
  2293 C1       1.7910   5.3714  41.1870   C.2       1 RES1   0.0000
  2294 C2       2.8808   4.5686  40.3568   C.2       1 RES1   0.0000
  2295 C3       3.5174   3.5174  41.0251   C.2       1 RES1   0.0000
  2296 H3       3.2514   3.2514  41.8866   H         1 RES1   0.0000
  2297 C4       3.2895   5.0648  39.2381   C.2       1 RES1   0.0000
  2298 H4       2.9336   5.8672  38.8993   H         1 RES1   0.0000
  2299 C5       4.3270   4.3270  38.5228   C.2       1 RES1   0.0000
  2300 C6       4.8971   4.8971  37.2809   C.1       1 RES1   0.0000
  2301 C7       5.2413   5.2413  36.2053   C.1       1 RES1   0.0000
  2302 C8       5.7889   5.7889  35.0856   C.1       1 RES1   0.0000
  2303 C9       6.1410   6.1410  34.0051   C.1       1 RES1   0.0000
  2304 C10      6.6837   6.6837  32.7925   C.2       1 RES1   0.0000
  2305 C11      6.1556   7.8522  32.2987   C.2       1 RES1   0.0000
  2306 H11      5.4565   8.2971  32.7436   H         1 RES1   0.0000
  2307 C1       5.3714  16.7405  26.2375   C.2       1 RES1   0.0000
  2308 C2       4.5686  15.9103  27.3273   C.2       1 RES1   0.0000
  2309 C3       3.5174  16.5786  27.9639   C.2       1 RES1   0.0000
  2310 H3       3.2514  17.4401  27.6979   H         1 RES1   0.0000
  2311 C4       5.0648  14.7916  27.7360   C.2       1 RES1   0.0000
  2312 H4       5.8672  14.4528  27.3801   H         1 RES1   0.0000
  2313 C5       4.3270  14.0763  28.7735   C.2       1 RES1   0.0000
  2314 C6       4.8971  12.8344  29.3436   C.1       1 RES1   0.0000
  2315 C7       5.2413  11.7588  29.6878   C.1       1 RES1   0.0000
  2316 C8       5.7889  10.6391  30.2354   C.1       1 RES1   0.0000
  2317 C9       6.1410   9.5586  30.5875   C.1       1 RES1   0.0000
  2318 C10      6.6837   8.3460  31.1302   C.2       1 RES1   0.0000
  2319 C11      7.8522   7.8522  30.6021   C.2       1 RES1   0.0000
  2320 H11      8.2971   8.2971  29.9030   H         1 RES1   0.0000
  2321 C1      16.7405   1.7910  29.8179   C.2       1 RES1   0.0000
  2322 C2      15.9103   2.8808  29.0151   C.2       1 RES1   0.0000
  2323 C3      16.5786   3.5174  27.9639   C.2       1 RES1   0.0000
  2324 H3      17.4401   3.2514  27.6979   H         1 RES1   0.0000
  2325 C4      14.7916   3.2895  29.5113   C.2       1 RES1   0.0000
  2326 H4      14.4528   2.9336  30.3137   H         1 RES1   0.0000
  2327 C5      14.0763   4.3270  28.7735   C.2       1 RES1   0.0000
  2328 C6      12.8344   4.8971  29.3436   C.1       1 RES1   0.0000
  2329 C7      11.7588   5.2413  29.6878   C.1       1 RES1   0.0000
  2330 C8      10.6391   5.7889  30.2354   C.1       1 RES1   0.0000
  2331 C9       9.5586   6.1410  30.5875   C.1       1 RES1   0.0000
  2332 C10      8.3460   6.6837  31.1302   C.2       1 RES1   0.0000
  2333 C11      7.8522   6.1556  32.2987   C.2       1 RES1   0.0000
  2334 H11      8.2971   5.4565  32.7436   H         1 RES1   0.0000
  2335 C1       5.3714   1.7910  41.1870   C.2       1 RES1   0.0000
  2336 C2       4.5686   2.8808  40.3568   C.2       1 RES1   0.0000
  2337 C4       5.0648   3.2895  39.2381   C.2       1 RES1   0.0000
  2338 H4       5.8672   2.9336  38.8993   H         1 RES1   0.0000
  2339 C1       1.7910  16.7405  29.8179   C.2       1 RES1   0.0000
  2340 C2       2.8808  15.9103  29.0151   C.2       1 RES1   0.0000
  2341 C4       3.2895  14.7916  29.5113   C.2       1 RES1   0.0000
  2342 H4       2.9336  14.4528  30.3137   H         1 RES1   0.0000
  2343 C1      16.7405   5.3714  26.2375   C.2       1 RES1   0.0000
  2344 C2      15.9103   4.5686  27.3273   C.2       1 RES1   0.0000
  2345 C4      14.7916   5.0648  27.7360   C.2       1 RES1   0.0000
  2346 H4      14.4528   5.8672  27.3801   H         1 RES1   0.0000
  2347 C1       5.3714  47.1020  41.1870   C.2       1 RES1   0.0000
  2348 C2       4.5686  46.0122  40.3568   C.2       1 RES1   0.0000
  2349 C3       3.5174  45.3756  41.0251   C.2       1 RES1   0.0000
  2350 H3       3.2514  45.6416  41.8866   H         1 RES1   0.0000
  2351 C4       5.0648  45.6035  39.2381   C.2       1 RES1   0.0000
  2352 H4       5.8672  45.9594  38.8993   H         1 RES1   0.0000
  2353 C5       4.3270  44.5660  38.5228   C.2       1 RES1   0.0000
  2354 C6       4.8971  43.9959  37.2809   C.1       1 RES1   0.0000
  2355 C7       5.2413  43.6517  36.2053   C.1       1 RES1   0.0000
  2356 C8       5.7889  43.1041  35.0856   C.1       1 RES1   0.0000
  2357 C9       6.1410  42.7520  34.0051   C.1       1 RES1   0.0000
  2358 C10      6.6837  42.2093  32.7925   C.2       1 RES1   0.0000
  2359 C11      7.8522  42.7374  32.2987   C.2       1 RES1   0.0000
  2360 H11      8.2971  43.4365  32.7436   H         1 RES1   0.0000
  2361 C1      16.7405  43.5216  26.2375   C.2       1 RES1   0.0000
  2362 C2      15.9103  44.3244  27.3273   C.2       1 RES1   0.0000
  2363 C3      16.5786  45.3756  27.9639   C.2       1 RES1   0.0000
  2364 H3      17.4401  45.6416  27.6979   H         1 RES1   0.0000
  2365 C4      14.7916  43.8282  27.7360   C.2       1 RES1   0.0000
  2366 H4      14.4528  43.0258  27.3801   H         1 RES1   0.0000
  2367 C5      14.0763  44.5660  28.7735   C.2       1 RES1   0.0000
  2368 C6      12.8344  43.9959  29.3436   C.1       1 RES1   0.0000
  2369 C7      11.7588  43.6517  29.6878   C.1       1 RES1   0.0000
  2370 C8      10.6391  43.1041  30.2354   C.1       1 RES1   0.0000
  2371 C9       9.5586  42.7520  30.5875   C.1       1 RES1   0.0000
  2372 C10      8.3460  42.2093  31.1302   C.2       1 RES1   0.0000
  2373 C11      7.8522  41.0408  30.6021   C.2       1 RES1   0.0000
  2374 H11      8.2971  40.5959  29.9030   H         1 RES1   0.0000
  2375 C1       1.7910  32.1525  29.8179   C.2       1 RES1   0.0000
  2376 C2       2.8808  32.9827  29.0151   C.2       1 RES1   0.0000
  2377 C3       3.5174  32.3144  27.9639   C.2       1 RES1   0.0000
  2378 H3       3.2514  31.4529  27.6979   H         1 RES1   0.0000
  2379 C4       3.2895  34.1014  29.5113   C.2       1 RES1   0.0000
  2380 H4       2.9336  34.4402  30.3137   H         1 RES1   0.0000
  2381 C5       4.3270  34.8167  28.7735   C.2       1 RES1   0.0000
  2382 C6       4.8971  36.0586  29.3436   C.1       1 RES1   0.0000
  2383 C7       5.2413  37.1342  29.6878   C.1       1 RES1   0.0000
  2384 C8       5.7889  38.2539  30.2354   C.1       1 RES1   0.0000
  2385 C9       6.1410  39.3344  30.5875   C.1       1 RES1   0.0000
  2386 C10      6.6837  40.5470  31.1302   C.2       1 RES1   0.0000
  2387 C11      6.1556  41.0408  32.2987   C.2       1 RES1   0.0000
  2388 H11      5.4565  40.5959  32.7436   H         1 RES1   0.0000
  2389 C1       1.7910  43.5216  41.1870   C.2       1 RES1   0.0000
  2390 C2       2.8808  44.3244  40.3568   C.2       1 RES1   0.0000
  2391 C4       3.2895  43.8282  39.2381   C.2       1 RES1   0.0000
  2392 H4       2.9336  43.0258  38.8993   H         1 RES1   0.0000
  2393 C1      16.7405  47.1020  29.8179   C.2       1 RES1   0.0000
  2394 C2      15.9103  46.0122  29.0151   C.2       1 RES1   0.0000
  2395 C4      14.7916  45.6035  29.5113   C.2       1 RES1   0.0000
  2396 H4      14.4528  45.9594  30.3137   H         1 RES1   0.0000
  2397 C1       5.3714  32.1525  26.2375   C.2       1 RES1   0.0000
  2398 C2       4.5686  32.9827  27.3273   C.2       1 RES1   0.0000
  2399 C4       5.0648  34.1014  27.7360   C.2       1 RES1   0.0000
  2400 H4       5.8672  34.4402  27.3801   H         1 RES1   0.0000
@<TRIPOS>BOND
     1     1     2   un
     2     1     3   un
     3     1     5   un
     4     1   159   un
     5     1   162   un
     6     1   164   un
     7     2     4   un
     8     2     6   un
     9     2   167   un
    10     2   170   un
    11     2   172   un
    12     3     7   un
    13     4     7   un
    14     7     8   un
    15     8     9   un
    16     8    11   un
    17     9    10    1
    18     9    56   un
    19    11    12    1
    20    11    13   un
    21    13    14   un
    22    13    57   un
    23    14    15   un
    24    15    16   un
    25    16    17   un
    26    17    18   un
    27    18    19   un
    28    18    51   un
    29    19    20    1
    30    19    34   un
    31    21    23   un
    32    21   141   un
    33    22    23   un
    34    22   142   un
    35    23    24   un
    36    24    25   un
    37    24    27   un
    38    25    26    1
    39    25    62   un
    40    27    28    1
    41    27    29   un
    42    29    30   un
    43    29    63   un
    44    30    31   un
    45    31    32   un
    46    32    33   un
    47    33    34   un
    48    34    35   un
    49    35    36    1
    50    35    50   un
    51    37    39   un
    52    37   148   un
    53    38    39   un
    54    38   155   un
    55    39    40   un
    56    40    41   un
    57    40    43   un
    58    41    42    1
    59    41    68   un
    60    43    44    1
    61    43    45   un
    62    45    46   un
    63    45    69   un
    64    46    47   un
    65    47    48   un
    66    48    49   un
    67    49    50   un
    68    50    51   un
    69    51    52    1
    70    53    55   un
    71    53    71   un
    72    54    55   un
    73    54    72   un
    74    55    56   un
    75    56    57   un
    76    57    58    1
    77    59    61   un
    78    59   150   un
    79    60    61   un
    80    60   157   un
    81    61    62   un
    82    62    63   un
    83    63    64    1
    84    65    67   un
    85    65   147   un
    86    66    67   un
    87    66   154   un
    88    67    68   un
    89    68    69   un
    90    69    70    1
    91    71    72   un
    92    71    73   un
    93    71    75   un
    94    71   160   un
    95    71   165   un
    96    72    74   un
    97    72    76   un
    98    72   168   un
    99    72   173   un
   100    73    77   un
   101    74    77   un
   102    77    78   un
   103    78    79   un
   104    78    81   un
   105    79    80    1
   106    79   126   un
   107    81    82    1
   108    81    83   un
   109    83    84   un
   110    83   127   un
   111    84    85   un
   112    85    86   un
   113    86    87   un
   114    87    88   un
   115    88    89   un
   116    88   121   un
   117    89    90    1
   118    89   104   un
   119    91    93   un
   120    91   151   un
   121    92    93   un
   122    92   158   un
   123    93    94   un
   124    94    95   un
   125    94    97   un
   126    95    96    1
   127    95   132   un
   128    97    98    1
   129    97    99   un
   130    99   100   un
   131    99   133   un
   132   100   101   un
   133   101   102   un
   134   102   103   un
   135   103   104   un
   136   104   105   un
   137   105   106    1
   138   105   120   un
   139   107   109   un
   140   107   146   un
   141   108   109   un
   142   108   153   un
   143   109   110   un
   144   110   111   un
   145   110   113   un
   146   111   112    1
   147   111   138   un
   148   113   114    1
   149   113   115   un
   150   115   116   un
   151   115   139   un
   152   116   117   un
   153   117   118   un
   154   118   119   un
   155   119   120   un
   156   120   121   un
   157   121   122    1
   158   123   125   un
   159   123   145   un
   160   124   125   un
   161   124   152   un
   162   125   126   un
   163   126   127   un
   164   127   128    1
   165   129   131   un
   166   129   148   un
   167   130   131   un
   168   130   155   un
   169   131   132   un
   170   132   133   un
   171   133   134    1
   172   135   137   un
   173   135   149   un
   174   136   137   un
   175   136   156   un
   176   137   138   un
   177   138   139   un
   178   139   140    1
   179   141   142   un
   180   141   143   un
   181   141   161   un
   182   141   163   un
   183   141   166   un
   184   142   144   un
   185   142   169   un
   186   142   171   un
   187   142   174   un
   188   145   152   un
   189   146   153   un
   190   147   154   un
   191   148   155   un
   192   149   156   un
   193   150   157   un
   194   151   158   un
   195   145   175   un
   196   145   177   un
   197   145   253   un
   198   145   256   un
   199   152   176   un
   200   152   178   un
   201   152   258   un
   202   152   261   un
   203   175   179   un
   204   176   179   un
   205   179   180   un
   206   180   181   un
   207   180   183   un
   208   181   182    1
   209   181   228   un
   210   183   184    1
   211   183   185   un
   212   185   186   un
   213   185   229   un
   214   186   187   un
   215   187   188   un
   216   188   189   un
   217   189   190   un
   218   190   191   un
   219   190   223   un
   220   191   192    1
   221   191   206   un
   222   193   195   un
   223   193   248   un
   224   194   195   un
   225   194   252   un
   226   195   196   un
   227   196   197   un
   228   196   199   un
   229   197   198    1
   230   197   234   un
   231   199   200    1
   232   199   201   un
   233   201   202   un
   234   201   235   un
   235   202   203   un
   236   203   204   un
   237   204   205   un
   238   205   206   un
   239   206   207   un
   240   207   208    1
   241   207   222   un
   242   209   211   un
   243   209   246   un
   244   210   211   un
   245   210   250   un
   246   211   212   un
   247   212   213   un
   248   212   215   un
   249   213   214    1
   250   213   240   un
   251   215   216    1
   252   215   217   un
   253   217   218   un
   254   217   241   un
   255   218   219   un
   256   219   220   un
   257   220   221   un
   258   221   222   un
   259   222   223   un
   260   223   224    1
   261   225   227   un
   262   225   245   un
   263   226   227   un
   264   226   249   un
   265   227   228   un
   266   228   229   un
   267   229   230    1
   268   231   233   un
   269   231   146   un
   270   232   233   un
   271   232   153   un
   272   233   234   un
   273   234   235   un
   274   235   236    1
   275   237   239   un
   276   237   247   un
   277   238   239   un
   278   238   251   un
   279   239   240   un
   280   240   241   un
   281   241   242    1
   282   151   243   un
   283   151   254   un
   284   151   255   un
   285   151   257   un
   286   158   244   un
   287   158   259   un
   288   158   260   un
   289   158   262   un
   290   245   249   un
   291   246   250   un
   292   247   251   un
   293   248   252   un
   294   245   263   un
   295   245   265   un
   296   245   335   un
   297   245   338   un
   298   249   264   un
   299   249   266   un
   300   249   340   un
   301   249   343   un
   302   263   267   un
   303   264   267   un
   304   267   268   un
   305   268   269   un
   306   268   271   un
   307   269   270    1
   308   269   314   un
   309   271   272    1
   310   271   273   un
   311   273   274   un
   312   273   315   un
   313   274   275   un
   314   275   276   un
   315   276   277   un
   316   277   278   un
   317   278   279   un
   318   278   311   un
   319   279   280    1
   320   279   294   un
   321   281   283   un
   322   281   332   un
   323   282   283   un
   324   282   334   un
   325   283   284   un
   326   284   285   un
   327   284   287   un
   328   285   286    1
   329   285   320   un
   330   287   288    1
   331   287   289   un
   332   289   290   un
   333   289   321   un
   334   290   291   un
   335   291   292   un
   336   292   293   un
   337   293   294   un
   338   294   295   un
   339   295   296    1
   340   295   310   un
   341   297   299   un
   342   297   150   un
   343   298   299   un
   344   298   157   un
   345   299   300   un
   346   300   301   un
   347   300   303   un
   348   301   302    1
   349   301   326   un
   350   303   304    1
   351   303   305   un
   352   305   306   un
   353   305   327   un
   354   306   307   un
   355   307   308   un
   356   308   309   un
   357   309   310   un
   358   310   311   un
   359   311   312    1
   360   162   313   un
   361   170   313   un
   362   313   314   un
   363   314   315   un
   364   315   316    1
   365   317   319   un
   366   317   246   un
   367   318   319   un
   368   318   250   un
   369   319   320   un
   370   320   321   un
   371   321   322    1
   372   323   325   un
   373   323   331   un
   374   324   325   un
   375   324   333   un
   376   325   326   un
   377   326   327   un
   378   327   328    1
   379   248   329   un
   380   248   336   un
   381   248   337   un
   382   248   339   un
   383   252   330   un
   384   252   341   un
   385   252   342   un
   386   252   344   un
   387   331   333   un
   388   332   334   un
   389   332   345   un
   390   332   347   un
   391   332   348   un
   392   332   349   un
   393   334   346   un
   394   334   350   un
   395   334   351   un
   396   334   352   un
   397   353   354   un
   398   353   355   un
   399   353   357   un
   400   353   429   un
   401   353   431   un
   402   353   433   un
   403   354   356   un
   404   354   358   un
   405   354   435   un
   406   354   437   un
   407   354   439   un
   408   355   359   un
   409   356   359   un
   410   359   360   un
   411   360   361   un
   412   360   363   un
   413   361   362    1
   414   361   406   un
   415   363   364    1
   416   363   365   un
   417   365   366   un
   418   365   407   un
   419   366   367   un
   420   367   368   un
   421   368   369   un
   422   369   370   un
   423   370   371   un
   424   370   403   un
   425   371   372    1
   426   371   386   un
   427   373   375   un
   428   373   421   un
   429   374   375   un
   430   374   422   un
   431   375   376   un
   432   376   377   un
   433   376   379   un
   434   377   378    1
   435   377   412   un
   436   379   380    1
   437   379   381   un
   438   381   382   un
   439   381   413   un
   440   382   383   un
   441   383   384   un
   442   384   385   un
   443   385   386   un
   444   386   387   un
   445   387   388    1
   446   387   402   un
   447   389   391   un
   448   389   147   un
   449   390   391   un
   450   390   154   un
   451   391   392   un
   452   392   393   un
   453   392   395   un
   454   393   394    1
   455   393   418   un
   456   395   396    1
   457   395   397   un
   458   397   398   un
   459   397   419   un
   460   398   399   un
   461   399   400   un
   462   400   401   un
   463   401   402   un
   464   402   403   un
   465   403   404    1
   466   163   405   un
   467   171   405   un
   468   405   406   un
   469   406   407   un
   470   407   408    1
   471   409   411   un
   472   409   426   un
   473   410   411   un
   474   410   428   un
   475   411   412   un
   476   412   413   un
   477   413   414    1
   478   415   417   un
   479   415   425   un
   480   416   417   un
   481   416   427   un
   482   417   418   un
   483   418   419   un
   484   419   420    1
   485   421   422   un
   486   421   423   un
   487   421   430   un
   488   421   432   un
   489   421   434   un
   490   422   424   un
   491   422   436   un
   492   422   438   un
   493   422   440   un
   494   425   427   un
   495   426   428   un
   496   441   442   un
   497   441   443   un
   498   441   445   un
   499   441   511   un
   500   441   513   un
   501   441   514   un
   502   442   444   un
   503   442   446   un
   504   442   516   un
   505   442   518   un
   506   442   519   un
   507   443   447   un
   508   444   447   un
   509   447   448   un
   510   448   449   un
   511   448   451   un
   512   449   450    1
   513   449   494   un
   514   451   452    1
   515   451   453   un
   516   453   454   un
   517   453   495   un
   518   454   455   un
   519   455   456   un
   520   456   457   un
   521   457   458   un
   522   458   459   un
   523   458   491   un
   524   459   460    1
   525   459   474   un
   526   461   463   un
   527   461   149   un
   528   462   463   un
   529   462   156   un
   530   463   464   un
   531   464   465   un
   532   464   467   un
   533   465   466    1
   534   465   500   un
   535   467   468    1
   536   467   469   un
   537   469   470   un
   538   469   501   un
   539   470   471   un
   540   471   472   un
   541   472   473   un
   542   473   474   un
   543   474   475   un
   544   475   476    1
   545   475   490   un
   546   477   479   un
   547   477   425   un
   548   478   479   un
   549   478   427   un
   550   479   480   un
   551   480   481   un
   552   480   483   un
   553   481   482    1
   554   481   504   un
   555   483   484    1
   556   483   485   un
   557   485   486   un
   558   485   505   un
   559   486   487   un
   560   487   488   un
   561   488   489   un
   562   489   490   un
   563   490   491   un
   564   491   492    1
   565   432   493   un
   566   438   493   un
   567   493   494   un
   568   494   495   un
   569   495   496    1
   570   497   499   un
   571   497   509   un
   572   498   499   un
   573   498   510   un
   574   499   500   un
   575   500   501   un
   576   501   502    1
   577   255   503   un
   578   260   503   un
   579   503   504   un
   580   504   505   un
   581   505   506    1
   582   149   507   un
   583   149   512   un
   584   149   515   un
   585   156   508   un
   586   156   517   un
   587   156   520   un
   588   509   510   un
   589   146   521   un
   590   146   523   un
   591   146   524   un
   592   153   522   un
   593   153   525   un
   594   153   526   un
   595   147   527   un
   596   147   531   un
   597   147   533   un
   598   154   528   un
   599   154   535   un
   600   154   537   un
   601   425   529   un
   602   425   532   un
   603   425   534   un
   604   427   530   un
   605   427   536   un
   606   427   538   un
   607   426   539   un
   608   426   541   un
   609   426   673   un
   610   426   676   un
   611   428   540   un
   612   428   542   un
   613   428   679   un
   614   428   682   un
   615   539   543   un
   616   540   543   un
   617   543   544   un
   618   544   545   un
   619   544   547   un
   620   545   546    1
   621   545   592   un
   622   547   548    1
   623   547   549   un
   624   549   550   un
   625   549   593   un
   626   550   551   un
   627   551   552   un
   628   552   553   un
   629   553   554   un
   630   554   555   un
   631   554   587   un
   632   555   556    1
   633   555   570   un
   634   557   559   un
   635   557   331   un
   636   558   559   un
   637   558   333   un
   638   559   560   un
   639   560   561   un
   640   560   563   un
   641   561   562    1
   642   561   596   un
   643   563   564    1
   644   563   565   un
   645   565   566   un
   646   565   597   un
   647   566   567   un
   648   567   568   un
   649   568   569   un
   650   569   570   un
   651   570   571   un
   652   571   572    1
   653   571   586   un
   654   573   575   un
   655   573   671   un
   656   574   575   un
   657   574   672   un
   658   575   576   un
   659   576   577   un
   660   576   579   un
   661   577   578    1
   662   577   600   un
   663   579   580    1
   664   579   581   un
   665   581   582   un
   666   581   601   un
   667   582   583   un
   668   583   584   un
   669   584   585   un
   670   585   586   un
   671   586   587   un
   672   587   588    1
   673   589   591   un
   674   589   603   un
   675   590   591   un
   676   590   604   un
   677   591   592   un
   678   592   593   un
   679   593   594    1
   680   431   595   un
   681   437   595   un
   682   595   596   un
   683   596   597   un
   684   597   598    1
   685   348   599   un
   686   351   599   un
   687   599   600   un
   688   600   601   un
   689   601   602    1
   690   603   604   un
   691   603   605   un
   692   603   607   un
   693   603   674   un
   694   603   677   un
   695   604   606   un
   696   604   608   un
   697   604   680   un
   698   604   683   un
   699   605   609   un
   700   606   609   un
   701   609   610   un
   702   610   611   un
   703   610   613   un
   704   611   612    1
   705   611   656   un
   706   613   614    1
   707   613   615   un
   708   615   616   un
   709   615   657   un
   710   616   617   un
   711   617   618   un
   712   618   619   un
   713   619   620   un
   714   620   621   un
   715   620   653   un
   716   621   622    1
   717   621   636   un
   718   623   625   un
   719   623   247   un
   720   624   625   un
   721   624   251   un
   722   625   626   un
   723   626   627   un
   724   626   629   un
   725   627   628    1
   726   627   662   un
   727   629   630    1
   728   629   631   un
   729   631   632   un
   730   631   663   un
   731   632   633   un
   732   633   634   un
   733   634   635   un
   734   635   636   un
   735   636   637   un
   736   637   638    1
   737   637   652   un
   738   639   641   un
   739   639   509   un
   740   640   641   un
   741   640   510   un
   742   641   642   un
   743   642   643   un
   744   642   645   un
   745   643   644    1
   746   643   666   un
   747   645   646    1
   748   645   647   un
   749   647   648   un
   750   647   667   un
   751   648   649   un
   752   649   650   un
   753   650   651   un
   754   651   652   un
   755   652   653   un
   756   653   654    1
   757   513   655   un
   758   518   655   un
   759   655   656   un
   760   656   657   un
   761   657   658    1
   762   659   661   un
   763   659   671   un
   764   660   661   un
   765   660   672   un
   766   661   662   un
   767   662   663   un
   768   663   664    1
   769   337   665   un
   770   342   665   un
   771   665   666   un
   772   666   667   un
   773   667   668    1
   774   331   669   un
   775   331   675   un
   776   331   678   un
   777   333   670   un
   778   333   681   un
   779   333   684   un
   780   671   672   un
   781   246   685   un
   782   246   689   un
   783   246   691   un
   784   250   686   un
   785   250   693   un
   786   250   695   un
   787   150   687   un
   788   150   690   un
   789   150   692   un
   790   157   688   un
   791   157   694   un
   792   157   696   un
   793   148   697   un
   794   148   699   un
   795   148   700   un
   796   155   698   un
   797   155   701   un
   798   155   702   un
   799   509   703   un
   800   509   705   un
   801   509   706   un
   802   510   704   un
   803   510   707   un
   804   510   708   un
   805   671   709   un
   806   671   711   un
   807   671   712   un
   808   672   710   un
   809   672   713   un
   810   672   714   un
   811   247   715   un
   812   247   717   un
   813   247   718   un
   814   251   716   un
   815   251   719   un
   816   251   720   un
   817   721   722   un
   818   721   723   un
   819   721   727   un
   820   721   728   un
   821   722   724   un
   822   722   729   un
   823   722   730   un
   824   725   726   un
   825   705   731   un
   826   707   731   un
   827   731   732   un
   828   732   733   un
   829   732   735   un
   830   733   734    1
   831   733   780   un
   832   735   736    1
   833   735   737   un
   834   737   738   un
   835   737   781   un
   836   738   739   un
   837   739   740   un
   838   740   741   un
   839   741   742   un
   840   742   743   un
   841   742   775   un
   842   743   744    1
   843   743   758   un
   844   745   747   un
   845   745   797   un
   846   746   747   un
   847   746   798   un
   848   747   748   un
   849   748   749   un
   850   748   751   un
   851   749   750    1
   852   749   784   un
   853   751   752    1
   854   751   753   un
   855   753   754   un
   856   753   785   un
   857   754   755   un
   858   755   756   un
   859   756   757   un
   860   757   758   un
   861   758   759   un
   862   759   760    1
   863   759   774   un
   864   761   763   un
   865   761   802   un
   866   762   763   un
   867   762   804   un
   868   763   764   un
   869   764   765   un
   870   764   767   un
   871   765   766    1
   872   765   790   un
   873   767   768    1
   874   767   769   un
   875   769   770   un
   876   769   791   un
   877   770   771   un
   878   771   772   un
   879   772   773   un
   880   773   774   un
   881   774   775   un
   882   775   776    1
   883   777   779   un
   884   777   793   un
   885   778   779   un
   886   778   794   un
   887   779   780   un
   888   780   781   un
   889   781   782    1
   890   514   783   un
   891   519   783   un
   892   783   784   un
   893   784   785   un
   894   785   786    1
   895   787   789   un
   896   787   801   un
   897   788   789   un
   898   788   803   un
   899   789   790   un
   900   790   791   un
   901   791   792    1
   902   793   794   un
   903   793   795   un
   904   793   805   un
   905   794   796   un
   906   794   807   un
   907   797   798   un
   908   797   799   un
   909   797   806   un
   910   798   800   un
   911   798   808   un
   912   801   803   un
   913   802   804   un
   914   809   811   un
   915   810   812   un
   916   813   814   un
   917   813   815   un
   918   813   817   un
   919   813   885   un
   920   814   816   un
   921   814   818   un
   922   814   886   un
   923   815   819   un
   924   816   819   un
   925   819   820   un
   926   820   821   un
   927   820   823   un
   928   821   822    1
   929   821   864   un
   930   823   824    1
   931   823   825   un
   932   825   826   un
   933   825   865   un
   934   826   827   un
   935   827   828   un
   936   828   829   un
   937   829   830   un
   938   830   831   un
   939   830   861   un
   940   831   832    1
   941   831   846   un
   942   833   835   un
   943   833   881   un
   944   834   835   un
   945   834   884   un
   946   835   836   un
   947   836   837   un
   948   836   839   un
   949   837   838    1
   950   837   870   un
   951   839   840    1
   952   839   841   un
   953   841   842   un
   954   841   871   un
   955   842   843   un
   956   843   844   un
   957   844   845   un
   958   845   846   un
   959   846   847   un
   960   847   848    1
   961   847   860   un
   962   673   849   un
   963   679   849   un
   964   849   850   un
   965   850   851   un
   966   850   853   un
   967   851   852    1
   968   851   876   un
   969   853   854    1
   970   853   855   un
   971   855   856   un
   972   855   877   un
   973   856   857   un
   974   857   858   un
   975   858   859   un
   976   859   860   un
   977   860   861   un
   978   861   862    1
   979   433   863   un
   980   439   863   un
   981   863   864   un
   982   864   865   un
   983   865   866    1
   984   867   869   un
   985   867   879   un
   986   868   869   un
   987   868   882   un
   988   869   870   un
   989   870   871   un
   990   871   872    1
   991   873   875   un
   992   873   880   un
   993   874   875   un
   994   874   883   un
   995   875   876   un
   996   876   877   un
   997   877   878    1
   998   879   882   un
   999   880   883   un
  1000   881   884   un
  1001   887   889   un
  1002   888   890   un
  1003   810   891   un
  1004   810   897   un
  1005   810   898   un
  1006   812   892   un
  1007   812   899   un
  1008   812   900   un
  1009   893   895   un
  1010   894   896   un
  1011   429   901   un
  1012   435   901   un
  1013   901   902   un
  1014   902   903   un
  1015   902   905   un
  1016   903   904    1
  1017   903   950   un
  1018   905   906    1
  1019   905   907   un
  1020   907   908   un
  1021   907   951   un
  1022   908   909   un
  1023   909   910   un
  1024   910   911   un
  1025   911   912   un
  1026   912   913   un
  1027   912   945   un
  1028   913   914    1
  1029   913   928   un
  1030   915   917   un
  1031   915   968   un
  1032   916   917   un
  1033   916   972   un
  1034   917   918   un
  1035   918   919   un
  1036   918   921   un
  1037   919   920    1
  1038   919   954   un
  1039   921   922    1
  1040   921   923   un
  1041   923   924   un
  1042   923   955   un
  1043   924   925   un
  1044   925   926   un
  1045   926   927   un
  1046   927   928   un
  1047   928   929   un
  1048   929   930    1
  1049   929   944   un
  1050   931   933   un
  1051   931   966   un
  1052   932   933   un
  1053   932   970   un
  1054   933   934   un
  1055   934   935   un
  1056   934   937   un
  1057   935   936    1
  1058   935   960   un
  1059   937   938    1
  1060   937   939   un
  1061   939   940   un
  1062   939   961   un
  1063   940   941   un
  1064   941   942   un
  1065   942   943   un
  1066   943   944   un
  1067   944   945   un
  1068   945   946    1
  1069   947   949   un
  1070   947   965   un
  1071   948   949   un
  1072   948   969   un
  1073   949   950   un
  1074   950   951   un
  1075   951   952    1
  1076   676   953   un
  1077   682   953   un
  1078   953   954   un
  1079   954   955   un
  1080   955   956    1
  1081   957   959   un
  1082   957   967   un
  1083   958   959   un
  1084   958   971   un
  1085   959   960   un
  1086   960   961   un
  1087   961   962    1
  1088   881   963   un
  1089   881   973   un
  1090   884   964   un
  1091   884   974   un
  1092   965   969   un
  1093   966   970   un
  1094   967   971   un
  1095   968   972   un
  1096   975   977   un
  1097   976   978   un
  1098   887   979   un
  1099   887   981   un
  1100   887  1047   un
  1101   889   980   un
  1102   889   982   un
  1103   889  1048   un
  1104   979   983   un
  1105   980   983   un
  1106   983   984   un
  1107   984   985   un
  1108   984   987   un
  1109   985   986    1
  1110   985  1028   un
  1111   987   988    1
  1112   987   989   un
  1113   989   990   un
  1114   989  1029   un
  1115   990   991   un
  1116   991   992   un
  1117   992   993   un
  1118   993   994   un
  1119   994   995   un
  1120   994  1025   un
  1121   995   996    1
  1122   995  1010   un
  1123   997   999   un
  1124   997  1044   un
  1125   998   999   un
  1126   998  1046   un
  1127   999  1000   un
  1128  1000  1001   un
  1129  1000  1003   un
  1130  1001  1002    1
  1131  1001  1034   un
  1132  1003  1004    1
  1133  1003  1005   un
  1134  1005  1006   un
  1135  1005  1035   un
  1136  1006  1007   un
  1137  1007  1008   un
  1138  1008  1009   un
  1139  1009  1010   un
  1140  1010  1011   un
  1141  1011  1012    1
  1142  1011  1024   un
  1143   511  1013   un
  1144   516  1013   un
  1145  1013  1014   un
  1146  1014  1015   un
  1147  1014  1017   un
  1148  1015  1016    1
  1149  1015  1040   un
  1150  1017  1018    1
  1151  1017  1019   un
  1152  1019  1020   un
  1153  1019  1041   un
  1154  1020  1021   un
  1155  1021  1022   un
  1156  1022  1023   un
  1157  1023  1024   un
  1158  1024  1025   un
  1159  1025  1026    1
  1160   706  1027   un
  1161   708  1027   un
  1162  1027  1028   un
  1163  1028  1029   un
  1164  1029  1030    1
  1165  1031  1033   un
  1166  1031   888   un
  1167  1032  1033   un
  1168  1032   890   un
  1169  1033  1034   un
  1170  1034  1035   un
  1171  1035  1036    1
  1172  1037  1039   un
  1173  1037  1043   un
  1174  1038  1039   un
  1175  1038  1045   un
  1176  1039  1040   un
  1177  1040  1041   un
  1178  1041  1042    1
  1179  1043  1045   un
  1180  1044  1046   un
  1181   894  1049   un
  1182   894  1051   un
  1183   894  1052   un
  1184   896  1050   un
  1185   896  1053   un
  1186   896  1054   un
  1187   965  1055   un
  1188   965  1059   un
  1189   969  1056   un
  1190   969  1061   un
  1191   968  1057   un
  1192   968  1060   un
  1193   972  1058   un
  1194   972  1062   un
  1195   976  1063   un
  1196   976  1065   un
  1197   976  1066   un
  1198   978  1064   un
  1199   978  1067   un
  1200   978  1068   un
  1201  1044  1069   un
  1202  1044  1071   un
  1203  1046  1070   un
  1204  1046  1072   un
  1205   253  1073   un
  1206   258  1073   un
  1207  1073  1074   un
  1208  1074  1075   un
  1209  1074  1077   un
  1210  1075  1076    1
  1211  1075  1120   un
  1212  1077  1078    1
  1213  1077  1079   un
  1214  1079  1080   un
  1215  1079  1121   un
  1216  1080  1081   un
  1217  1081  1082   un
  1218  1082  1083   un
  1219  1083  1084   un
  1220  1084  1085   un
  1221  1084  1117   un
  1222  1085  1086    1
  1223  1085  1100   un
  1224  1087  1089   un
  1225  1087  1133   un
  1226  1088  1089   un
  1227  1088  1134   un
  1228  1089  1090   un
  1229  1090  1091   un
  1230  1090  1093   un
  1231  1091  1092    1
  1232  1091  1124   un
  1233  1093  1094    1
  1234  1093  1095   un
  1235  1095  1096   un
  1236  1095  1125   un
  1237  1096  1097   un
  1238  1097  1098   un
  1239  1098  1099   un
  1240  1099  1100   un
  1241  1100  1101   un
  1242  1101  1102    1
  1243  1101  1116   un
  1244  1103  1105   un
  1245  1103   725   un
  1246  1104  1105   un
  1247  1104   726   un
  1248  1105  1106   un
  1249  1106  1107   un
  1250  1106  1109   un
  1251  1107  1108    1
  1252  1107  1130   un
  1253  1109  1110    1
  1254  1109  1111   un
  1255  1111  1112   un
  1256  1111  1131   un
  1257  1112  1113   un
  1258  1113  1114   un
  1259  1114  1115   un
  1260  1115  1116   un
  1261  1116  1117   un
  1262  1117  1118    1
  1263   728  1119   un
  1264   730  1119   un
  1265  1119  1120   un
  1266  1120  1121   un
  1267  1121  1122    1
  1268   524  1123   un
  1269   526  1123   un
  1270  1123  1124   un
  1271  1124  1125   un
  1272  1125  1126    1
  1273  1127  1129   un
  1274  1127  1137   un
  1275  1128  1129   un
  1276  1128  1138   un
  1277  1129  1130   un
  1278  1130  1131   un
  1279  1131  1132    1
  1280  1133  1134   un
  1281  1133  1135   un
  1282  1133  1139   un
  1283  1134  1136   un
  1284  1134  1140   un
  1285  1137  1138   un
  1286  1141  1142   un
  1287  1141  1143   un
  1288  1141  1147   un
  1289  1141  1148   un
  1290  1142  1144   un
  1291  1142  1149   un
  1292  1142  1150   un
  1293  1145  1146   un
  1294   690  1151   un
  1295   694  1151   un
  1296  1151  1152   un
  1297  1152  1153   un
  1298  1152  1155   un
  1299  1153  1154    1
  1300  1153  1198   un
  1301  1155  1156    1
  1302  1155  1157   un
  1303  1157  1158   un
  1304  1157  1199   un
  1305  1158  1159   un
  1306  1159  1160   un
  1307  1160  1161   un
  1308  1161  1162   un
  1309  1162  1163   un
  1310  1162  1195   un
  1311  1163  1164    1
  1312  1163  1178   un
  1313  1165  1167   un
  1314  1165   809   un
  1315  1166  1167   un
  1316  1166   811   un
  1317  1167  1168   un
  1318  1168  1169   un
  1319  1168  1171   un
  1320  1169  1170    1
  1321  1169  1202   un
  1322  1171  1172    1
  1323  1171  1173   un
  1324  1173  1174   un
  1325  1173  1203   un
  1326  1174  1175   un
  1327  1175  1176   un
  1328  1176  1177   un
  1329  1177  1178   un
  1330  1178  1179   un
  1331  1179  1180    1
  1332  1179  1194   un
  1333  1181  1183   un
  1334  1181  1145   un
  1335  1182  1183   un
  1336  1182  1146   un
  1337  1183  1184   un
  1338  1184  1185   un
  1339  1184  1187   un
  1340  1185  1186    1
  1341  1185  1206   un
  1342  1187  1188    1
  1343  1187  1189   un
  1344  1189  1190   un
  1345  1189  1207   un
  1346  1190  1191   un
  1347  1191  1192   un
  1348  1192  1193   un
  1349  1193  1194   un
  1350  1194  1195   un
  1351  1195  1196    1
  1352  1148  1197   un
  1353  1150  1197   un
  1354  1197  1198   un
  1355  1198  1199   un
  1356  1199  1200    1
  1357   164  1201   un
  1358   172  1201   un
  1359  1201  1202   un
  1360  1202  1203   un
  1361  1203  1204    1
  1362   898  1205   un
  1363   900  1205   un
  1364  1205  1206   un
  1365  1206  1207   un
  1366  1207  1208    1
  1367   809  1209   un
  1368   809  1211   un
  1369   811  1210   un
  1370   811  1212   un
  1371   880  1213   un
  1372   880  1215   un
  1373   883  1214   un
  1374   883  1216   un
  1375   725  1217   un
  1376   725  1222   un
  1377   726  1218   un
  1378   726  1224   un
  1379  1137  1219   un
  1380  1137  1221   un
  1381  1138  1220   un
  1382  1138  1223   un
  1383   801  1225   un
  1384   801  1227   un
  1385   803  1226   un
  1386   803  1228   un
  1387  1145  1229   un
  1388  1145  1231   un
  1389  1146  1230   un
  1390  1146  1232   un
  1391   523  1233   un
  1392   525  1233   un
  1393  1233  1234   un
  1394  1234  1235   un
  1395  1234  1237   un
  1396  1235  1236    1
  1397  1235  1282   un
  1398  1237  1238    1
  1399  1237  1239   un
  1400  1239  1240   un
  1401  1239  1283   un
  1402  1240  1241   un
  1403  1241  1242   un
  1404  1242  1243   un
  1405  1243  1244   un
  1406  1244  1245   un
  1407  1244  1277   un
  1408  1245  1246    1
  1409  1245  1260   un
  1410  1247  1249   un
  1411  1247   975   un
  1412  1248  1249   un
  1413  1248   977   un
  1414  1249  1250   un
  1415  1250  1251   un
  1416  1250  1253   un
  1417  1251  1252    1
  1418  1251  1286   un
  1419  1253  1254    1
  1420  1253  1255   un
  1421  1255  1256   un
  1422  1255  1287   un
  1423  1256  1257   un
  1424  1257  1258   un
  1425  1258  1259   un
  1426  1259  1260   un
  1427  1260  1261   un
  1428  1261  1262    1
  1429  1261  1276   un
  1430  1263  1265   un
  1431  1263  1299   un
  1432  1264  1265   un
  1433  1264  1300   un
  1434  1265  1266   un
  1435  1266  1267   un
  1436  1266  1269   un
  1437  1267  1268    1
  1438  1267  1290   un
  1439  1269  1270    1
  1440  1269  1271   un
  1441  1271  1272   un
  1442  1271  1291   un
  1443  1272  1273   un
  1444  1273  1274   un
  1445  1274  1275   un
  1446  1275  1276   un
  1447  1276  1277   un
  1448  1277  1278    1
  1449  1279  1281   un
  1450  1279  1293   un
  1451  1280  1281   un
  1452  1280  1294   un
  1453  1281  1282   un
  1454  1282  1283   un
  1455  1283  1284    1
  1456   256  1285   un
  1457   261  1285   un
  1458  1285  1286   un
  1459  1286  1287   un
  1460  1287  1288    1
  1461  1066  1289   un
  1462  1068  1289   un
  1463  1289  1290   un
  1464  1290  1291   un
  1465  1291  1292    1
  1466  1293  1294   un
  1467  1293  1295   un
  1468  1293  1301   un
  1469  1294  1296   un
  1470  1294  1303   un
  1471   975  1297   un
  1472   975  1302   un
  1473   977  1298   un
  1474   977  1304   un
  1475  1299  1300   un
  1476  1043  1305   un
  1477  1043  1307   un
  1478  1045  1306   un
  1479  1045  1308   un
  1480  1309  1310   un
  1481  1309  1311   un
  1482  1309  1313   un
  1483  1309  1375   un
  1484  1310  1312   un
  1485  1310  1314   un
  1486  1310  1376   un
  1487  1311  1315   un
  1488  1312  1315   un
  1489  1315  1316   un
  1490  1316  1317   un
  1491  1316  1319   un
  1492  1317  1318    1
  1493  1317  1360   un
  1494  1319  1320    1
  1495  1319  1321   un
  1496  1321  1322   un
  1497  1321  1361   un
  1498  1322  1323   un
  1499  1323  1324   un
  1500  1324  1325   un
  1501  1325  1326   un
  1502  1326  1327   un
  1503  1326  1357   un
  1504  1327  1328    1
  1505  1327  1342   un
  1506  1329  1331   un
  1507  1329   893   un
  1508  1330  1331   un
  1509  1330   895   un
  1510  1331  1332   un
  1511  1332  1333   un
  1512  1332  1335   un
  1513  1333  1334    1
  1514  1333  1366   un
  1515  1335  1336    1
  1516  1335  1337   un
  1517  1337  1338   un
  1518  1337  1367   un
  1519  1338  1339   un
  1520  1339  1340   un
  1521  1340  1341   un
  1522  1341  1342   un
  1523  1342  1343   un
  1524  1343  1344    1
  1525  1343  1356   un
  1526   159  1345   un
  1527   167  1345   un
  1528  1345  1346   un
  1529  1346  1347   un
  1530  1346  1349   un
  1531  1347  1348    1
  1532  1347  1370   un
  1533  1349  1350    1
  1534  1349  1351   un
  1535  1351  1352   un
  1536  1351  1371   un
  1537  1352  1353   un
  1538  1353  1354   un
  1539  1354  1355   un
  1540  1355  1356   un
  1541  1356  1357   un
  1542  1357  1358    1
  1543   692  1359   un
  1544   696  1359   un
  1545  1359  1360   un
  1546  1360  1361   un
  1547  1361  1362    1
  1548  1363  1365   un
  1549  1363  1373   un
  1550  1364  1365   un
  1551  1364  1374   un
  1552  1365  1366   un
  1553  1366  1367   un
  1554  1367  1368    1
  1555  1052  1369   un
  1556  1054  1369   un
  1557  1369  1370   un
  1558  1370  1371   un
  1559  1371  1372    1
  1560  1373  1374   un
  1561   888  1377   un
  1562   888  1379   un
  1563   890  1378   un
  1564   890  1380   un
  1565   966  1381   un
  1566   966  1383   un
  1567   970  1382   un
  1568   970  1384   un
  1569   802  1385   un
  1570   802  1387   un
  1571   804  1386   un
  1572   804  1388   un
  1573   879  1389   un
  1574   879  1391   un
  1575   882  1390   un
  1576   882  1392   un
  1577  1299  1393   un
  1578  1299  1395   un
  1579  1300  1394   un
  1580  1300  1396   un
  1581  1373  1397   un
  1582  1373  1399   un
  1583  1374  1398   un
  1584  1374  1400   un
  1585   893  1401   un
  1586   893  1403   un
  1587   895  1402   un
  1588   895  1404   un
  1589   967  1405   un
  1590   967  1407   un
  1591   971  1406   un
  1592   971  1408   un
  1593  1409  1410   un
  1594  1409  1411   un
  1595  1409  1419   un
  1596  1409  1420   un
  1597  1410  1412   un
  1598  1410  1421   un
  1599  1410  1422   un
  1600  1413  1416   un
  1601  1414  1417   un
  1602  1415  1418   un
  1603  1423  1424   un
  1604  1423  1425   un
  1605  1423  1427   un
  1606  1423  1549   un
  1607  1424  1426   un
  1608  1424  1428   un
  1609  1424  1550   un
  1610  1425  1429   un
  1611  1426  1429   un
  1612  1429  1430   un
  1613  1430  1431   un
  1614  1430  1433   un
  1615  1431  1432    1
  1616  1431  1472   un
  1617  1433  1434    1
  1618  1433  1435   un
  1619  1435  1436   un
  1620  1435  1473   un
  1621  1436  1437   un
  1622  1437  1438   un
  1623  1438  1439   un
  1624  1439  1440   un
  1625  1440  1441   un
  1626  1440  1469   un
  1627  1441  1442    1
  1628  1441  1454   un
  1629  1407  1443   un
  1630  1408  1443   un
  1631  1443  1444   un
  1632  1444  1445   un
  1633  1444  1447   un
  1634  1445  1446    1
  1635  1445  1478   un
  1636  1447  1448    1
  1637  1447  1449   un
  1638  1449  1450   un
  1639  1449  1479   un
  1640  1450  1451   un
  1641  1451  1452   un
  1642  1452  1453   un
  1643  1453  1454   un
  1644  1454  1455   un
  1645  1455  1456    1
  1646  1455  1468   un
  1647   674  1457   un
  1648   680  1457   un
  1649  1457  1458   un
  1650  1458  1459   un
  1651  1458  1461   un
  1652  1459  1460    1
  1653  1459  1482   un
  1654  1461  1462    1
  1655  1461  1463   un
  1656  1463  1464   un
  1657  1463  1483   un
  1658  1464  1465   un
  1659  1465  1466   un
  1660  1466  1467   un
  1661  1467  1468   un
  1662  1468  1469   un
  1663  1469  1470    1
  1664   712  1471   un
  1665   714  1471   un
  1666  1471  1472   un
  1667  1472  1473   un
  1668  1473  1474    1
  1669  1475  1477   un
  1670  1475  1545   un
  1671  1476  1477   un
  1672  1476  1548   un
  1673  1477  1478   un
  1674  1478  1479   un
  1675  1479  1480    1
  1676  1060  1481   un
  1677  1062  1481   un
  1678  1481  1482   un
  1679  1482  1483   un
  1680  1483  1484    1
  1681   711  1485   un
  1682   713  1485   un
  1683  1485  1486   un
  1684  1486  1487   un
  1685  1486  1489   un
  1686  1487  1488    1
  1687  1487  1532   un
  1688  1489  1490    1
  1689  1489  1491   un
  1690  1491  1492   un
  1691  1491  1533   un
  1692  1492  1493   un
  1693  1493  1494   un
  1694  1494  1495   un
  1695  1495  1496   un
  1696  1496  1497   un
  1697  1496  1527   un
  1698  1497  1498    1
  1699  1497  1510   un
  1700  1307  1499   un
  1701  1308  1499   un
  1702  1499  1500   un
  1703  1500  1501   un
  1704  1500  1503   un
  1705  1501  1502    1
  1706  1501  1536   un
  1707  1503  1504    1
  1708  1503  1505   un
  1709  1505  1506   un
  1710  1505  1537   un
  1711  1506  1507   un
  1712  1507  1508   un
  1713  1508  1509   un
  1714  1509  1510   un
  1715  1510  1511   un
  1716  1511  1512    1
  1717  1511  1526   un
  1718  1513  1515   un
  1719  1513  1544   un
  1720  1514  1515   un
  1721  1514  1547   un
  1722  1515  1516   un
  1723  1516  1517   un
  1724  1516  1519   un
  1725  1517  1518    1
  1726  1517  1540   un
  1727  1519  1520    1
  1728  1519  1521   un
  1729  1521  1522   un
  1730  1521  1541   un
  1731  1522  1523   un
  1732  1523  1524   un
  1733  1524  1525   un
  1734  1525  1526   un
  1735  1526  1527   un
  1736  1527  1528    1
  1737  1529  1531   un
  1738  1529  1543   un
  1739  1530  1531   un
  1740  1530  1546   un
  1741  1531  1532   un
  1742  1532  1533   un
  1743  1533  1534    1
  1744   677  1535   un
  1745   683  1535   un
  1746  1535  1536   un
  1747  1536  1537   un
  1748  1537  1538    1
  1749  1071  1539   un
  1750  1072  1539   un
  1751  1539  1540   un
  1752  1540  1541   un
  1753  1541  1542    1
  1754  1543  1546   un
  1755  1544  1547   un
  1756  1545  1548   un
  1757  1413  1551   un
  1758  1413  1553   un
  1759  1413  1611   un
  1760  1416  1552   un
  1761  1416  1554   un
  1762  1416  1612   un
  1763  1551  1555   un
  1764  1552  1555   un
  1765  1555  1556   un
  1766  1556  1557   un
  1767  1556  1559   un
  1768  1557  1558    1
  1769  1557  1598   un
  1770  1559  1560    1
  1771  1559  1561   un
  1772  1561  1562   un
  1773  1561  1599   un
  1774  1562  1563   un
  1775  1563  1564   un
  1776  1564  1565   un
  1777  1565  1566   un
  1778  1566  1567   un
  1779  1566  1595   un
  1780  1567  1568    1
  1781  1567  1580   un
  1782  1227  1569   un
  1783  1228  1569   un
  1784  1569  1570   un
  1785  1570  1571   un
  1786  1570  1573   un
  1787  1571  1572    1
  1788  1571  1604   un
  1789  1573  1574    1
  1790  1573  1575   un
  1791  1575  1576   un
  1792  1575  1605   un
  1793  1576  1577   un
  1794  1577  1578   un
  1795  1578  1579   un
  1796  1579  1580   un
  1797  1580  1581   un
  1798  1581  1582    1
  1799  1581  1594   un
  1800   430  1583   un
  1801   436  1583   un
  1802  1583  1584   un
  1803  1584  1585   un
  1804  1584  1587   un
  1805  1585  1586    1
  1806  1585  1608   un
  1807  1587  1588    1
  1808  1587  1589   un
  1809  1589  1590   un
  1810  1589  1609   un
  1811  1590  1591   un
  1812  1591  1592   un
  1813  1592  1593   un
  1814  1593  1594   un
  1815  1594  1595   un
  1816  1595  1596    1
  1817   534  1597   un
  1818   538  1597   un
  1819  1597  1598   un
  1820  1598  1599   un
  1821  1599  1600    1
  1822  1601  1603   un
  1823  1601  1414   un
  1824  1602  1603   un
  1825  1602  1417   un
  1826  1603  1604   un
  1827  1604  1605   un
  1828  1605  1606    1
  1829   806  1607   un
  1830   808  1607   un
  1831  1607  1608   un
  1832  1608  1609   un
  1833  1609  1610    1
  1834  1543  1613   un
  1835  1543  1615   un
  1836  1546  1614   un
  1837  1546  1616   un
  1838   532  1617   un
  1839   536  1617   un
  1840  1617  1618   un
  1841  1618  1619   un
  1842  1618  1621   un
  1843  1619  1620    1
  1844  1619  1662   un
  1845  1621  1622    1
  1846  1621  1623   un
  1847  1623  1624   un
  1848  1623  1663   un
  1849  1624  1625   un
  1850  1625  1626   un
  1851  1626  1627   un
  1852  1627  1628   un
  1853  1628  1629   un
  1854  1628  1659   un
  1855  1629  1630    1
  1856  1629  1642   un
  1857  1215  1631   un
  1858  1216  1631   un
  1859  1631  1632   un
  1860  1632  1633   un
  1861  1632  1635   un
  1862  1633  1634    1
  1863  1633  1666   un
  1864  1635  1636    1
  1865  1635  1637   un
  1866  1637  1638   un
  1867  1637  1667   un
  1868  1638  1639   un
  1869  1639  1640   un
  1870  1640  1641   un
  1871  1641  1642   un
  1872  1642  1643   un
  1873  1643  1644    1
  1874  1643  1658   un
  1875  1645  1647   un
  1876  1645  1415   un
  1877  1646  1647   un
  1878  1646  1418   un
  1879  1647  1648   un
  1880  1648  1649   un
  1881  1648  1651   un
  1882  1649  1650    1
  1883  1649  1670   un
  1884  1651  1652    1
  1885  1651  1653   un
  1886  1653  1654   un
  1887  1653  1671   un
  1888  1654  1655   un
  1889  1655  1656   un
  1890  1656  1657   un
  1891  1657  1658   un
  1892  1658  1659   un
  1893  1659  1660    1
  1894  1420  1661   un
  1895  1422  1661   un
  1896  1661  1662   un
  1897  1662  1663   un
  1898  1663  1664    1
  1899   434  1665   un
  1900   440  1665   un
  1901  1665  1666   un
  1902  1666  1667   un
  1903  1667  1668    1
  1904   973  1669   un
  1905   974  1669   un
  1906  1669  1670   un
  1907  1670  1671   un
  1908  1671  1672    1
  1909  1673  1674   un
  1910  1673  1675   un
  1911  1673  1679   un
  1912  1673  1680   un
  1913  1674  1676   un
  1914  1674  1681   un
  1915  1674  1682   un
  1916  1677  1678   un
  1917  1683  1684   un
  1918  1683  1685   un
  1919  1683  1687   un
  1920  1683  1747   un
  1921  1684  1686   un
  1922  1684  1688   un
  1923  1684  1748   un
  1924  1685  1689   un
  1925  1686  1689   un
  1926  1689  1690   un
  1927  1690  1691   un
  1928  1690  1693   un
  1929  1691  1692    1
  1930  1691  1732   un
  1931  1693  1694    1
  1932  1693  1695   un
  1933  1695  1696   un
  1934  1695  1733   un
  1935  1696  1697   un
  1936  1697  1698   un
  1937  1698  1699   un
  1938  1699  1700   un
  1939  1700  1701   un
  1940  1700  1729   un
  1941  1701  1702    1
  1942  1701  1714   un
  1943   689  1703   un
  1944   693  1703   un
  1945  1703  1704   un
  1946  1704  1705   un
  1947  1704  1707   un
  1948  1705  1706    1
  1949  1705  1738   un
  1950  1707  1708    1
  1951  1707  1709   un
  1952  1709  1710   un
  1953  1709  1739   un
  1954  1710  1711   un
  1955  1711  1712   un
  1956  1712  1713   un
  1957  1713  1714   un
  1958  1714  1715   un
  1959  1715  1716    1
  1960  1715  1728   un
  1961  1051  1717   un
  1962  1053  1717   un
  1963  1717  1718   un
  1964  1718  1719   un
  1965  1718  1721   un
  1966  1719  1720    1
  1967  1719  1742   un
  1968  1721  1722    1
  1969  1721  1723   un
  1970  1723  1724   un
  1971  1723  1743   un
  1972  1724  1725   un
  1973  1725  1726   un
  1974  1726  1727   un
  1975  1727  1728   un
  1976  1728  1729   un
  1977  1729  1730    1
  1978  1403  1731   un
  1979  1404  1731   un
  1980  1731  1732   un
  1981  1732  1733   un
  1982  1733  1734    1
  1983  1735  1737   un
  1984  1735  1745   un
  1985  1736  1737   un
  1986  1736  1746   un
  1987  1737  1738   un
  1988  1738  1739   un
  1989  1739  1740    1
  1990   338  1741   un
  1991   343  1741   un
  1992  1741  1742   un
  1993  1742  1743   un
  1994  1743  1744    1
  1995  1745  1746   un
  1996  1749  1750   un
  1997  1749  1751   un
  1998  1749  1755   un
  1999  1749  1756   un
  2000  1750  1752   un
  2001  1750  1757   un
  2002  1750  1758   un
  2003  1753  1754   un
  2004  1759  1760   un
  2005  1759  1761   un
  2006  1759  1763   un
  2007  1759  1823   un
  2008  1760  1762   un
  2009  1760  1764   un
  2010  1760  1824   un
  2011  1761  1765   un
  2012  1762  1765   un
  2013  1765  1766   un
  2014  1766  1767   un
  2015  1766  1769   un
  2016  1767  1768    1
  2017  1767  1808   un
  2018  1769  1770    1
  2019  1769  1771   un
  2020  1771  1772   un
  2021  1771  1809   un
  2022  1772  1773   un
  2023  1773  1774   un
  2024  1774  1775   un
  2025  1775  1776   un
  2026  1776  1777   un
  2027  1776  1805   un
  2028  1777  1778    1
  2029  1777  1790   un
  2030  1065  1779   un
  2031  1067  1779   un
  2032  1779  1780   un
  2033  1780  1781   un
  2034  1780  1783   un
  2035  1781  1782    1
  2036  1781  1814   un
  2037  1783  1784    1
  2038  1783  1785   un
  2039  1785  1786   un
  2040  1785  1815   un
  2041  1786  1787   un
  2042  1787  1788   un
  2043  1788  1789   un
  2044  1789  1790   un
  2045  1790  1791   un
  2046  1791  1792    1
  2047  1791  1804   un
  2048   335  1793   un
  2049   340  1793   un
  2050  1793  1794   un
  2051  1794  1795   un
  2052  1794  1797   un
  2053  1795  1796    1
  2054  1795  1818   un
  2055  1797  1798    1
  2056  1797  1799   un
  2057  1799  1800   un
  2058  1799  1819   un
  2059  1800  1801   un
  2060  1801  1802   un
  2061  1802  1803   un
  2062  1803  1804   un
  2063  1804  1805   un
  2064  1805  1806    1
  2065   691  1807   un
  2066   695  1807   un
  2067  1807  1808   un
  2068  1808  1809   un
  2069  1809  1810    1
  2070  1811  1813   un
  2071  1811  1821   un
  2072  1812  1813   un
  2073  1812  1822   un
  2074  1813  1814   un
  2075  1814  1815   un
  2076  1815  1816    1
  2077  1302  1817   un
  2078  1304  1817   un
  2079  1817  1818   un
  2080  1818  1819   un
  2081  1819  1820    1
  2082  1821  1822   un
  2083  1414  1825   un
  2084  1414  1827   un
  2085  1417  1826   un
  2086  1417  1828   un
  2087  1544  1829   un
  2088  1544  1831   un
  2089  1547  1830   un
  2090  1547  1832   un
  2091  1677  1833   un
  2092  1677  1835   un
  2093  1677  1947   un
  2094  1678  1834   un
  2095  1678  1836   un
  2096  1678  1948   un
  2097  1833  1837   un
  2098  1834  1837   un
  2099  1837  1838   un
  2100  1838  1839   un
  2101  1838  1841   un
  2102  1839  1840    1
  2103  1839  1880   un
  2104  1841  1842    1
  2105  1841  1843   un
  2106  1843  1844   un
  2107  1843  1881   un
  2108  1844  1845   un
  2109  1845  1846   un
  2110  1846  1847   un
  2111  1847  1848   un
  2112  1848  1849   un
  2113  1848  1877   un
  2114  1849  1850    1
  2115  1849  1862   un
  2116   897  1851   un
  2117   899  1851   un
  2118  1851  1852   un
  2119  1852  1853   un
  2120  1852  1855   un
  2121  1853  1854    1
  2122  1853  1884   un
  2123  1855  1856    1
  2124  1855  1857   un
  2125  1857  1858   un
  2126  1857  1885   un
  2127  1858  1859   un
  2128  1859  1860   un
  2129  1860  1861   un
  2130  1861  1862   un
  2131  1862  1863   un
  2132  1863  1864    1
  2133  1863  1876   un
  2134   160  1865   un
  2135   168  1865   un
  2136  1865  1866   un
  2137  1866  1867   un
  2138  1866  1869   un
  2139  1867  1868    1
  2140  1867  1888   un
  2141  1869  1870    1
  2142  1869  1871   un
  2143  1871  1872   un
  2144  1871  1889   un
  2145  1872  1873   un
  2146  1873  1874   un
  2147  1874  1875   un
  2148  1875  1876   un
  2149  1876  1877   un
  2150  1877  1878    1
  2151   700  1879   un
  2152   702  1879   un
  2153  1879  1880   un
  2154  1880  1881   un
  2155  1881  1882    1
  2156  1680  1883   un
  2157  1682  1883   un
  2158  1883  1884   un
  2159  1884  1885   un
  2160  1885  1886    1
  2161  1211  1887   un
  2162  1212  1887   un
  2163  1887  1888   un
  2164  1888  1889   un
  2165  1889  1890    1
  2166   699  1891   un
  2167   701  1891   un
  2168  1891  1892   un
  2169  1892  1893   un
  2170  1892  1895   un
  2171  1893  1894    1
  2172  1893  1936   un
  2173  1895  1896    1
  2174  1895  1897   un
  2175  1897  1898   un
  2176  1897  1937   un
  2177  1898  1899   un
  2178  1899  1900   un
  2179  1900  1901   un
  2180  1901  1902   un
  2181  1902  1903   un
  2182  1902  1933   un
  2183  1903  1904    1
  2184  1903  1916   un
  2185   727  1905   un
  2186   729  1905   un
  2187  1905  1906   un
  2188  1906  1907   un
  2189  1906  1909   un
  2190  1907  1908    1
  2191  1907  1940   un
  2192  1909  1910    1
  2193  1909  1911   un
  2194  1911  1912   un
  2195  1911  1941   un
  2196  1912  1913   un
  2197  1913  1914   un
  2198  1914  1915   un
  2199  1915  1916   un
  2200  1916  1917   un
  2201  1917  1918    1
  2202  1917  1932   un
  2203  1919  1921   un
  2204  1919  1753   un
  2205  1920  1921   un
  2206  1920  1754   un
  2207  1921  1922   un
  2208  1922  1923   un
  2209  1922  1925   un
  2210  1923  1924    1
  2211  1923  1944   un
  2212  1925  1926    1
  2213  1925  1927   un
  2214  1927  1928   un
  2215  1927  1945   un
  2216  1928  1929   un
  2217  1929  1930   un
  2218  1930  1931   un
  2219  1931  1932   un
  2220  1932  1933   un
  2221  1933  1934    1
  2222  1756  1935   un
  2223  1758  1935   un
  2224  1935  1936   un
  2225  1936  1937   un
  2226  1937  1938    1
  2227   165  1939   un
  2228   173  1939   un
  2229  1939  1940   un
  2230  1940  1941   un
  2231  1941  1942    1
  2232  1222  1943   un
  2233  1224  1943   un
  2234  1943  1944   un
  2235  1944  1945   un
  2236  1945  1946    1
  2237  1745  1949   un
  2238  1745  1951   un
  2239  1746  1950   un
  2240  1746  1952   un
  2241  1415  1953   un
  2242  1415  1955   un
  2243  1418  1954   un
  2244  1418  1956   un
  2245  1545  1957   un
  2246  1545  1959   un
  2247  1548  1958   un
  2248  1548  1960   un
  2249  1753  1961   un
  2250  1753  1963   un
  2251  1754  1962   un
  2252  1754  1964   un
  2253  1821  1965   un
  2254  1821  1967   un
  2255  1822  1966   un
  2256  1822  1968   un
  2257  1967  1969   un
  2258  1968  1969   un
  2259  1969  1970   un
  2260  1970  1971   un
  2261  1970  1973   un
  2262  1971  1972    1
  2263  1971  2012   un
  2264  1973  1974    1
  2265  1973  1975   un
  2266  1975  1976   un
  2267  1975  2013   un
  2268  1976  1977   un
  2269  1977  1978   un
  2270  1978  1979   un
  2271  1979  1980   un
  2272  1980  1981   un
  2273  1980  2009   un
  2274  1981  1982    1
  2275  1981  1994   un
  2276   717  1983   un
  2277   719  1983   un
  2278  1983  1984   un
  2279  1984  1985   un
  2280  1984  1987   un
  2281  1985  1986    1
  2282  1985  2016   un
  2283  1987  1988    1
  2284  1987  1989   un
  2285  1989  1990   un
  2286  1989  2017   un
  2287  1990  1991   un
  2288  1991  1992   un
  2289  1992  1993   un
  2290  1993  1994   un
  2291  1994  1995   un
  2292  1995  1996    1
  2293  1995  2008   un
  2294  1301  1997   un
  2295  1303  1997   un
  2296  1997  1998   un
  2297  1998  1999   un
  2298  1998  2001   un
  2299  1999  2000    1
  2300  1999  2020   un
  2301  2001  2002    1
  2302  2001  2003   un
  2303  2003  2004   un
  2304  2003  2021   un
  2305  2004  2005   un
  2306  2005  2006   un
  2307  2006  2007   un
  2308  2007  2008   un
  2309  2008  2009   un
  2310  2009  2010    1
  2311  1395  2011   un
  2312  1396  2011   un
  2313  2011  2012   un
  2314  2012  2013   un
  2315  2013  2014    1
  2316  1823  2015   un
  2317  1824  2015   un
  2318  2015  2016   un
  2319  2016  2017   un
  2320  2017  2018    1
  2321   339  2019   un
  2322   344  2019   un
  2323  2019  2020   un
  2324  2020  2021   un
  2325  2021  2022    1
  2326  1399  2023   un
  2327  1400  2023   un
  2328  2023  2024   un
  2329  2024  2025   un
  2330  2024  2027   un
  2331  2025  2026    1
  2332  2025  2066   un
  2333  2027  2028    1
  2334  2027  2029   un
  2335  2029  2030   un
  2336  2029  2067   un
  2337  2030  2031   un
  2338  2031  2032   un
  2339  2032  2033   un
  2340  2033  2034   un
  2341  2034  2035   un
  2342  2034  2063   un
  2343  2035  2036    1
  2344  2035  2048   un
  2345   675  2037   un
  2346   681  2037   un
  2347  2037  2038   un
  2348  2038  2039   un
  2349  2038  2041   un
  2350  2039  2040    1
  2351  2039  2070   un
  2352  2041  2042    1
  2353  2041  2043   un
  2354  2043  2044   un
  2355  2043  2071   un
  2356  2044  2045   un
  2357  2045  2046   un
  2358  2046  2047   un
  2359  2047  2048   un
  2360  2048  2049   un
  2361  2049  2050    1
  2362  2049  2062   un
  2363  1951  2051   un
  2364  1952  2051   un
  2365  2051  2052   un
  2366  2052  2053   un
  2367  2052  2055   un
  2368  2053  2054    1
  2369  2053  2074   un
  2370  2055  2056    1
  2371  2055  2057   un
  2372  2057  2058   un
  2373  2057  2075   un
  2374  2058  2059   un
  2375  2059  2060   un
  2376  2060  2061   un
  2377  2061  2062   un
  2378  2062  2063   un
  2379  2063  2064    1
  2380  1747  2065   un
  2381  1748  2065   un
  2382  2065  2066   un
  2383  2066  2067   un
  2384  2067  2068    1
  2385  1375  2069   un
  2386  1376  2069   un
  2387  2069  2070   un
  2388  2070  2071   un
  2389  2071  2072    1
  2390   349  2073   un
  2391   352  2073   un
  2392  2073  2074   un
  2393  2074  2075   un
  2394  2075  2076    1
  2395  1679  2077   un
  2396  1681  2077   un
  2397  2077  2078   un
  2398  2078  2079   un
  2399  2078  2081   un
  2400  2079  2080    1
  2401  2079  2120   un
  2402  2081  2082    1
  2403  2081  2083   un
  2404  2083  2084   un
  2405  2083  2121   un
  2406  2084  2085   un
  2407  2085  2086   un
  2408  2086  2087   un
  2409  2087  2088   un
  2410  2088  2089   un
  2411  2088  2117   un
  2412  2089  2090    1
  2413  2089  2102   un
  2414   531  2091   un
  2415   535  2091   un
  2416  2091  2092   un
  2417  2092  2093   un
  2418  2092  2095   un
  2419  2093  2094    1
  2420  2093  2124   un
  2421  2095  2096    1
  2422  2095  2097   un
  2423  2097  2098   un
  2424  2097  2125   un
  2425  2098  2099   un
  2426  2099  2100   un
  2427  2100  2101   un
  2428  2101  2102   un
  2429  2102  2103   un
  2430  2103  2104    1
  2431  2103  2116   un
  2432  1147  2105   un
  2433  1149  2105   un
  2434  2105  2106   un
  2435  2106  2107   un
  2436  2106  2109   un
  2437  2107  2108    1
  2438  2107  2128   un
  2439  2109  2110    1
  2440  2109  2111   un
  2441  2111  2112   un
  2442  2111  2129   un
  2443  2112  2113   un
  2444  2113  2114   un
  2445  2114  2115   un
  2446  2115  2116   un
  2447  2116  2117   un
  2448  2117  2118    1
  2449  1231  2119   un
  2450  1232  2119   un
  2451  2119  2120   un
  2452  2120  2121   un
  2453  2121  2122    1
  2454  1947  2123   un
  2455  1948  2123   un
  2456  2123  2124   un
  2457  2124  2125   un
  2458  2125  2126    1
  2459   166  2127   un
  2460   174  2127   un
  2461  2127  2128   un
  2462  2128  2129   un
  2463  2129  2130    1
  2464  1221  2131   un
  2465  1223  2131   un
  2466  2131  2132   un
  2467  2132  2133   un
  2468  2132  2135   un
  2469  2133  2134    1
  2470  2133  2174   un
  2471  2135  2136    1
  2472  2135  2137   un
  2473  2137  2138   un
  2474  2137  2175   un
  2475  2138  2139   un
  2476  2139  2140   un
  2477  2140  2141   un
  2478  2141  2142   un
  2479  2142  2143   un
  2480  2142  2171   un
  2481  2143  2144    1
  2482  2143  2156   un
  2483   512  2145   un
  2484   517  2145   un
  2485  2145  2146   un
  2486  2146  2147   un
  2487  2146  2149   un
  2488  2147  2148    1
  2489  2147  2178   un
  2490  2149  2150    1
  2491  2149  2151   un
  2492  2151  2152   un
  2493  2151  2179   un
  2494  2152  2153   un
  2495  2153  2154   un
  2496  2154  2155   un
  2497  2155  2156   un
  2498  2156  2157   un
  2499  2157  2158    1
  2500  2157  2170   un
  2501  1755  2159   un
  2502  1757  2159   un
  2503  2159  2160   un
  2504  2160  2161   un
  2505  2160  2163   un
  2506  2161  2162    1
  2507  2161  2182   un
  2508  2163  2164    1
  2509  2163  2165   un
  2510  2165  2166   un
  2511  2165  2183   un
  2512  2166  2167   un
  2513  2167  2168   un
  2514  2168  2169   un
  2515  2169  2170   un
  2516  2170  2171   un
  2517  2171  2172    1
  2518  1963  2173   un
  2519  1964  2173   un
  2520  2173  2174   un
  2521  2174  2175   un
  2522  2175  2176    1
  2523  1139  2177   un
  2524  1140  2177   un
  2525  2177  2178   un
  2526  2178  2179   un
  2527  2179  2180    1
  2528   257  2181   un
  2529   262  2181   un
  2530  2181  2182   un
  2531  2182  2183   un
  2532  2183  2184    1
  2533  1615  2185   un
  2534  1616  2185   un
  2535  2185  2186   un
  2536  2186  2187   un
  2537  2186  2189   un
  2538  2187  2188    1
  2539  2187  2228   un
  2540  2189  2190    1
  2541  2189  2191   un
  2542  2191  2192   un
  2543  2191  2229   un
  2544  2192  2193   un
  2545  2193  2194   un
  2546  2194  2195   un
  2547  2195  2196   un
  2548  2196  2197   un
  2549  2196  2225   un
  2550  2197  2198    1
  2551  2197  2210   un
  2552  1379  2199   un
  2553  1380  2199   un
  2554  2199  2200   un
  2555  2200  2201   un
  2556  2200  2203   un
  2557  2201  2202    1
  2558  2201  2232   un
  2559  2203  2204    1
  2560  2203  2205   un
  2561  2205  2206   un
  2562  2205  2233   un
  2563  2206  2207   un
  2564  2207  2208   un
  2565  2208  2209   un
  2566  2209  2210   un
  2567  2210  2211   un
  2568  2211  2212    1
  2569  2211  2224   un
  2570   336  2213   un
  2571   341  2213   un
  2572  2213  2214   un
  2573  2214  2215   un
  2574  2214  2217   un
  2575  2215  2216    1
  2576  2215  2236   un
  2577  2217  2218    1
  2578  2217  2219   un
  2579  2219  2220   un
  2580  2219  2237   un
  2581  2220  2221   un
  2582  2221  2222   un
  2583  2222  2223   un
  2584  2223  2224   un
  2585  2224  2225   un
  2586  2225  2226    1
  2587   718  2227   un
  2588   720  2227   un
  2589  2227  2228   un
  2590  2228  2229   un
  2591  2229  2230    1
  2592  1831  2231   un
  2593  1832  2231   un
  2594  2231  2232   un
  2595  2232  2233   un
  2596  2233  2234    1
  2597  1047  2235   un
  2598  1048  2235   un
  2599  2235  2236   un
  2600  2236  2237   un
  2601  2237  2238    1
  2602  1959  2239   un
  2603  1960  2239   un
  2604  2239  2240   un
  2605  2240  2241   un
  2606  2240  2243   un
  2607  2241  2242    1
  2608  2241  2282   un
  2609  2243  2244    1
  2610  2243  2245   un
  2611  2245  2246   un
  2612  2245  2283   un
  2613  2246  2247   un
  2614  2247  2248   un
  2615  2248  2249   un
  2616  2249  2250   un
  2617  2250  2251   un
  2618  2250  2279   un
  2619  2251  2252    1
  2620  2251  2264   un
  2621   347  2253   un
  2622   350  2253   un
  2623  2253  2254   un
  2624  2254  2255   un
  2625  2254  2257   un
  2626  2255  2256    1
  2627  2255  2286   un
  2628  2257  2258    1
  2629  2257  2259   un
  2630  2259  2260   un
  2631  2259  2287   un
  2632  2260  2261   un
  2633  2261  2262   un
  2634  2262  2263   un
  2635  2263  2264   un
  2636  2264  2265   un
  2637  2265  2266    1
  2638  2265  2278   un
  2639  1059  2267   un
  2640  1061  2267   un
  2641  2267  2268   un
  2642  2268  2269   un
  2643  2268  2271   un
  2644  2269  2270    1
  2645  2269  2290   un
  2646  2271  2272    1
  2647  2271  2273   un
  2648  2273  2274   un
  2649  2273  2291   un
  2650  2274  2275   un
  2651  2275  2276   un
  2652  2276  2277   un
  2653  2277  2278   un
  2654  2278  2279   un
  2655  2279  2280    1
  2656  1383  2281   un
  2657  1384  2281   un
  2658  2281  2282   un
  2659  2282  2283   un
  2660  2283  2284    1
  2661  1549  2285   un
  2662  1550  2285   un
  2663  2285  2286   un
  2664  2286  2287   un
  2665  2287  2288    1
  2666   678  2289   un
  2667   684  2289   un
  2668  2289  2290   un
  2669  2290  2291   un
  2670  2291  2292    1
  2671  1827  2293   un
  2672  1828  2293   un
  2673  2293  2294   un
  2674  2294  2295   un
  2675  2294  2297   un
  2676  2295  2296    1
  2677  2295  2336   un
  2678  2297  2298    1
  2679  2297  2299   un
  2680  2299  2300   un
  2681  2299  2337   un
  2682  2300  2301   un
  2683  2301  2302   un
  2684  2302  2303   un
  2685  2303  2304   un
  2686  2304  2305   un
  2687  2304  2333   un
  2688  2305  2306    1
  2689  2305  2318   un
  2690   254  2307   un
  2691   259  2307   un
  2692  2307  2308   un
  2693  2308  2309   un
  2694  2308  2311   un
  2695  2309  2310    1
  2696  2309  2340   un
  2697  2311  2312    1
  2698  2311  2313   un
  2699  2313  2314   un
  2700  2313  2341   un
  2701  2314  2315   un
  2702  2315  2316   un
  2703  2316  2317   un
  2704  2317  2318   un
  2705  2318  2319   un
  2706  2319  2320    1
  2707  2319  2332   un
  2708   805  2321   un
  2709   807  2321   un
  2710  2321  2322   un
  2711  2322  2323   un
  2712  2322  2325   un
  2713  2323  2324    1
  2714  2323  2344   un
  2715  2325  2326    1
  2716  2325  2327   un
  2717  2327  2328   un
  2718  2327  2345   un
  2719  2328  2329   un
  2720  2329  2330   un
  2721  2330  2331   un
  2722  2331  2332   un
  2723  2332  2333   un
  2724  2333  2334    1
  2725  1387  2335   un
  2726  1388  2335   un
  2727  2335  2336   un
  2728  2336  2337   un
  2729  2337  2338    1
  2730  1611  2339   un
  2731  1612  2339   un
  2732  2339  2340   un
  2733  2340  2341   un
  2734  2341  2342    1
  2735   515  2343   un
  2736   520  2343   un
  2737  2343  2344   un
  2738  2344  2345   un
  2739  2345  2346    1
  2740  1391  2347   un
  2741  1392  2347   un
  2742  2347  2348   un
  2743  2348  2349   un
  2744  2348  2351   un
  2745  2349  2350    1
  2746  2349  2390   un
  2747  2351  2352    1
  2748  2351  2353   un
  2749  2353  2354   un
  2750  2353  2391   un
  2751  2354  2355   un
  2752  2355  2356   un
  2753  2356  2357   un
  2754  2357  2358   un
  2755  2358  2359   un
  2756  2358  2387   un
  2757  2359  2360    1
  2758  2359  2372   un
  2759   161  2361   un
  2760   169  2361   un
  2761  2361  2362   un
  2762  2362  2363   un
  2763  2362  2365   un
  2764  2363  2364    1
  2765  2363  2394   un
  2766  2365  2366    1
  2767  2365  2367   un
  2768  2367  2368   un
  2769  2367  2395   un
  2770  2368  2369   un
  2771  2369  2370   un
  2772  2370  2371   un
  2773  2371  2372   un
  2774  2372  2373   un
  2775  2373  2374    1
  2776  2373  2386   un
  2777  1419  2375   un
  2778  1421  2375   un
  2779  2375  2376   un
  2780  2376  2377   un
  2781  2376  2379   un
  2782  2377  2378    1
  2783  2377  2398   un
  2784  2379  2380    1
  2785  2379  2381   un
  2786  2381  2382   un
  2787  2381  2399   un
  2788  2382  2383   un
  2789  2383  2384   un
  2790  2384  2385   un
  2791  2385  2386   un
  2792  2386  2387   un
  2793  2387  2388    1
  2794  1955  2389   un
  2795  1956  2389   un
  2796  2389  2390   un
  2797  2390  2391   un
  2798  2391  2392    1
  2799   885  2393   un
  2800   886  2393   un
  2801  2393  2394   un
  2802  2394  2395   un
  2803  2395  2396    1
  2804   533  2397   un
  2805   537  2397   un
  2806  2397  2398   un
  2807  2398  2399   un
  2808  2399  2400    1
@<TRIPOS>SUBSTRUCTURE
     1 RES1        1 GROUP             0 ****  ****    0  
