@<TRIPOS>MOLECULE
ZnH10(C2N)4
   288   288     1     0     0
SMALL
NO_CHARGES
****
Generated from the CSD

@<TRIPOS>ATOM
     1 Zn       0.0000   4.2478   8.4955   Zn        1 RES1   0.0000
     2 Zn       0.0000  12.7432   8.4955   Zn        1 RES1   0.0000
     3 Zn       4.2478   0.0000   8.4955   Zn        1 RES1   0.0000
     4 Zn       0.0000   8.4955   4.2477   Zn        1 RES1   0.0000
     5 Zn       8.4955   0.0000   4.2477   Zn        1 RES1   0.0000
     6 Zn       8.4955   4.2477   0.0000   Zn        1 RES1   0.0000
     7 Zn       4.2478   8.4955   0.0000   Zn        1 RES1   0.0000
     8 H        2.3974   6.4175   4.6997   H         1 RES1   0.0000
     9 H        6.4175   2.3974   4.6997   H         1 RES1   0.0000
    10 H        6.4175   4.6997   2.3974   H         1 RES1   0.0000
    11 H        4.6997   6.4175   2.3974   H         1 RES1   0.0000
    12 H        4.6997   2.3974   6.4175   H         1 RES1   0.0000
    13 H        2.3974   4.6997   6.4175   H         1 RES1   0.0000
    14 H        2.0780  10.8929   3.7958   H         1 RES1   0.0000
    15 H        0.7017   7.1396   1.2624   H         1 RES1   0.0000
    16 H        1.6006   6.4090   2.3176   H         1 RES1   0.0000
    17 H        2.1681   6.7301   0.8920   H         1 RES1   0.0000
    18 H       10.8929   2.0780   3.7958   H         1 RES1   0.0000
    19 H        2.0780   3.7958  10.8929   H         1 RES1   0.0000
    20 H        0.7017   1.2624   7.1396   H         1 RES1   0.0000
    21 H        1.6006   2.3176   6.4090   H         1 RES1   0.0000
    22 H        2.1681   0.8920   6.7301   H         1 RES1   0.0000
    23 H        3.7958   2.0780  10.8929   H         1 RES1   0.0000
    24 H       10.8929   3.7958   2.0780   H         1 RES1   0.0000
    25 H        7.1396   1.2624   0.7017   H         1 RES1   0.0000
    26 H        6.4090   2.3176   1.6006   H         1 RES1   0.0000
    27 H        6.7301   0.8920   2.1681   H         1 RES1   0.0000
    28 H        3.7958  10.8929   2.0780   H         1 RES1   0.0000
    29 C        1.7137   6.2614   5.3097   C.2       1 RES1   0.0000
    30 C        6.2614   1.7137   5.3097   C.2       1 RES1   0.0000
    31 C        6.2614   5.3097   1.7137   C.2       1 RES1   0.0000
    32 C        5.3097   6.2614   1.7137   C.2       1 RES1   0.0000
    33 C        5.3097   1.7137   6.2614   C.2       1 RES1   0.0000
    34 C        1.7137   5.3097   6.2614   C.2       1 RES1   0.0000
    35 C        2.0890   8.3613   2.0890   C.2       1 RES1   0.0000
    36 C        2.2341  10.2092   3.1858   C.2       1 RES1   0.0000
    37 C        1.5955   7.0428   1.5955   C.3       1 RES1   0.0000
    38 C        8.3613   2.0890   2.0890   C.2       1 RES1   0.0000
    39 C       10.2092   2.2341   3.1858   C.2       1 RES1   0.0000
    40 C        7.0428   1.5955   1.5955   C.3       1 RES1   0.0000
    41 C        2.0890   2.0890   8.3613   C.2       1 RES1   0.0000
    42 C        2.2341   3.1858  10.2092   C.2       1 RES1   0.0000
    43 C        1.5955   1.5955   7.0428   C.3       1 RES1   0.0000
    44 C        3.1858   2.2341  10.2092   C.2       1 RES1   0.0000
    45 C       10.2092   3.1858   2.2341   C.2       1 RES1   0.0000
    46 C        3.1858  10.2092   2.2341   C.2       1 RES1   0.0000
    47 N        0.5383   6.9617   5.3899   N.3       1 RES1   0.0000
    48 N        6.9617   0.5383   5.3899   N.3       1 RES1   0.0000
    49 N        6.9617   5.3899   0.5383   N.3       1 RES1   0.0000
    50 N        5.3899   6.9617   0.5383   N.3       1 RES1   0.0000
    51 N        5.3899   0.5383   6.9617   N.3       1 RES1   0.0000
    52 N        0.5383   5.3899   6.9617   N.3       1 RES1   0.0000
    53 N        1.5338   9.0338   3.1056   N.2       1 RES1   0.0000
    54 N        9.0338   1.5338   3.1056   N.2       1 RES1   0.0000
    55 N        1.5338   3.1056   9.0338   N.2       1 RES1   0.0000
    56 N        3.1056   1.5338   9.0338   N.2       1 RES1   0.0000
    57 N        9.0338   3.1056   1.5338   N.2       1 RES1   0.0000
    58 N        3.1056   9.0338   1.5338   N.2       1 RES1   0.0000
    59 H        7.2331   1.3559   9.1972   H         1 RES1   0.0000
    60 H        6.1779   2.0865  10.0961   H         1 RES1   0.0000
    61 H        7.6035   1.7654  10.6636   H         1 RES1   0.0000
    62 C        6.4065   0.1342  10.5845   C.3       1 RES1   0.0000
    63 C        6.9000   1.4527  10.0910   C.3       1 RES1   0.0000
    64 H        1.3559   9.7579   7.7938   H         1 RES1   0.0000
    65 H        2.0865  10.8131   6.8949   H         1 RES1   0.0000
    66 H        1.7654   9.3875   6.3274   H         1 RES1   0.0000
    67 C        0.1342  10.5845   6.4065   C.3       1 RES1   0.0000
    68 C        1.4527  10.0910   6.9000   C.3       1 RES1   0.0000
    69 H        9.1972   1.3559   7.2331   H         1 RES1   0.0000
    70 H       10.0961   2.0865   6.1779   H         1 RES1   0.0000
    71 H       10.6636   1.7654   7.6035   H         1 RES1   0.0000
    72 C       10.5845   0.1342   6.4065   C.3       1 RES1   0.0000
    73 C       10.0910   1.4527   6.9000   C.3       1 RES1   0.0000
    74 H        1.3559   7.7938   9.7579   H         1 RES1   0.0000
    75 H        2.0865   6.8949  10.8131   H         1 RES1   0.0000
    76 H        1.7654   6.3274   9.3875   H         1 RES1   0.0000
    77 C        0.1342   6.4065  10.5845   C.3       1 RES1   0.0000
    78 C        1.4527   6.9000  10.0910   C.3       1 RES1   0.0000
    79 H        9.1972   7.2331   1.3559   H         1 RES1   0.0000
    80 H       10.0961   6.1779   2.0865   H         1 RES1   0.0000
    81 H       10.6636   7.6035   1.7654   H         1 RES1   0.0000
    82 C       10.5845   6.4065   0.1342   C.3       1 RES1   0.0000
    83 C       10.0910   6.9000   1.4527   C.3       1 RES1   0.0000
    84 H        7.7938   9.7579   1.3559   H         1 RES1   0.0000
    85 H        6.8949  10.8131   2.0865   H         1 RES1   0.0000
    86 H        6.3274   9.3875   1.7654   H         1 RES1   0.0000
    87 C        6.4065  10.5845   0.1342   C.3       1 RES1   0.0000
    88 C        6.9000  10.0910   1.4527   C.3       1 RES1   0.0000
    89 Zn       8.4955   0.0000  12.7432   Zn        1 RES1   0.0000
    90 Zn      12.7432   0.0000   8.4955   Zn        1 RES1   0.0000
    91 Zn       0.0000   8.4955  12.7432   Zn        1 RES1   0.0000
    92 Zn      12.7432   8.4955   0.0000   Zn        1 RES1   0.0000
    93 Zn       8.4955  12.7432   0.0000   Zn        1 RES1   0.0000
    94 Zn       8.4955   4.2478  16.9910   Zn        1 RES1   0.0000
    95 Zn       4.2478   8.4955  16.9910   Zn        1 RES1   0.0000
    96 H        7.7938   7.2331  15.6351   H         1 RES1   0.0000
    97 H        6.8949   6.1779  14.9045   H         1 RES1   0.0000
    98 H        6.3274   7.6035  15.2256   H         1 RES1   0.0000
    99 C        6.4065   6.4065  16.8568   C.3       1 RES1   0.0000
   100 C        6.9000   6.9000  15.5383   C.3       1 RES1   0.0000
   101 H       10.5735   2.3974  12.2913   H         1 RES1   0.0000
   102 H       12.2913   2.3974  10.5735   H         1 RES1   0.0000
   103 H        6.0981   2.0780  13.1952   H         1 RES1   0.0000
   104 H       13.1952   2.0780   6.0981   H         1 RES1   0.0000
   105 H       14.9130   3.7958   6.0981   H         1 RES1   0.0000
   106 H       16.2893   1.2624   9.8514   H         1 RES1   0.0000
   107 H       15.3904   2.3176  10.5820   H         1 RES1   0.0000
   108 H       14.8229   0.8920  10.2609   H         1 RES1   0.0000
   109 H        6.0981   3.7958  14.9130   H         1 RES1   0.0000
   110 H        9.8514   1.2624  16.2893   H         1 RES1   0.0000
   111 H       10.5820   2.3176  15.3904   H         1 RES1   0.0000
   112 H       10.2609   0.8920  14.8229   H         1 RES1   0.0000
   113 C       10.7296   1.7137  11.6813   C.2       1 RES1   0.0000
   114 C       11.6813   1.7137  10.7296   C.2       1 RES1   0.0000
   115 C        8.6297   2.0890  14.9020   C.2       1 RES1   0.0000
   116 C        6.7818   2.2341  13.8052   C.2       1 RES1   0.0000
   117 C        9.9482   1.5955  15.3955   C.3       1 RES1   0.0000
   118 C       14.9020   2.0890   8.6297   C.2       1 RES1   0.0000
   119 C       13.8052   2.2341   6.7818   C.2       1 RES1   0.0000
   120 C       15.3955   1.5955   9.9482   C.3       1 RES1   0.0000
   121 C       14.7569   3.1858   6.7818   C.2       1 RES1   0.0000
   122 C        6.7818   3.1858  14.7569   C.2       1 RES1   0.0000
   123 N       10.0293   0.5383  11.6011   N.3       1 RES1   0.0000
   124 N       11.6011   0.5383  10.0293   N.3       1 RES1   0.0000
   125 N        7.9572   1.5338  13.8854   N.2       1 RES1   0.0000
   126 N       13.8854   1.5338   7.9572   N.2       1 RES1   0.0000
   127 N       15.4572   3.1056   7.9572   N.2       1 RES1   0.0000
   128 N        7.9572   3.1056  15.4572   N.2       1 RES1   0.0000
   129 H        2.3974  10.5735  12.2913   H         1 RES1   0.0000
   130 H        2.3974  12.2913  10.5735   H         1 RES1   0.0000
   131 H        2.0780   6.0981  13.1952   H         1 RES1   0.0000
   132 H        3.7958  14.9130   6.0981   H         1 RES1   0.0000
   133 H        2.0780  13.1952   6.0981   H         1 RES1   0.0000
   134 H        0.7017  15.7286   9.8514   H         1 RES1   0.0000
   135 H        1.6006  14.6734  10.5820   H         1 RES1   0.0000
   136 H        2.1681  16.0990  10.2609   H         1 RES1   0.0000
   137 H        3.7958   6.0981  14.9130   H         1 RES1   0.0000
   138 H        1.2624   9.8514  16.2893   H         1 RES1   0.0000
   139 H        2.3176  10.5820  15.3904   H         1 RES1   0.0000
   140 H        0.8920  10.2609  14.8229   H         1 RES1   0.0000
   141 C        1.7137  10.7296  11.6813   C.2       1 RES1   0.0000
   142 C        1.7137  11.6813  10.7296   C.2       1 RES1   0.0000
   143 C        2.0890   8.6297  14.9020   C.2       1 RES1   0.0000
   144 C        2.2341   6.7818  13.8052   C.2       1 RES1   0.0000
   145 C        1.5955   9.9482  15.3955   C.3       1 RES1   0.0000
   146 C        2.0890  14.9020   8.6297   C.2       1 RES1   0.0000
   147 C        3.1858  14.7569   6.7818   C.2       1 RES1   0.0000
   148 C        1.5955  15.3955   9.9482   C.3       1 RES1   0.0000
   149 C        2.2341  13.8052   6.7818   C.2       1 RES1   0.0000
   150 C        3.1858   6.7818  14.7569   C.2       1 RES1   0.0000
   151 N        0.5383  10.0293  11.6011   N.3       1 RES1   0.0000
   152 N        0.5383  11.6011  10.0293   N.3       1 RES1   0.0000
   153 N        1.5338   7.9572  13.8854   N.2       1 RES1   0.0000
   154 N        3.1056  15.4572   7.9572   N.2       1 RES1   0.0000
   155 N        1.5338  13.8854   7.9572   N.2       1 RES1   0.0000
   156 N        3.1056   7.9572  15.4572   N.2       1 RES1   0.0000
   157 H       12.2913   6.4175  14.5936   H         1 RES1   0.0000
   158 H       10.5735   4.6997  14.5936   H         1 RES1   0.0000
   159 C       11.6813   6.2614  15.2773   C.2       1 RES1   0.0000
   160 C       10.7296   5.3097  15.2773   C.2       1 RES1   0.0000
   161 N       11.6011   6.9617  16.4527   N.3       1 RES1   0.0000
   162 N       10.0293   5.3899  16.4527   N.3       1 RES1   0.0000
   163 H        4.6997  10.5735  14.5936   H         1 RES1   0.0000
   164 H        6.4175  12.2913  14.5936   H         1 RES1   0.0000
   165 C        5.3097  10.7296  15.2773   C.2       1 RES1   0.0000
   166 C        6.2614  11.6813  15.2773   C.2       1 RES1   0.0000
   167 N        5.3899  10.0293  16.4527   N.3       1 RES1   0.0000
   168 N        6.9617  11.6011  16.4527   N.3       1 RES1   0.0000
   169 Zn      16.9910   4.2478   8.4955   Zn        1 RES1   0.0000
   170 Zn       4.2478  16.9910   8.4955   Zn        1 RES1   0.0000
   171 Zn      12.7433   8.4955  16.9910   Zn        1 RES1   0.0000
   172 Zn       8.4955  12.7433  16.9910   Zn        1 RES1   0.0000
   173 Zn       8.4955  16.9910   4.2477   Zn        1 RES1   0.0000
   174 H        7.2331  15.6351   7.7938   H         1 RES1   0.0000
   175 H        6.1779  14.9045   6.8949   H         1 RES1   0.0000
   176 H        7.6035  15.2256   6.3274   H         1 RES1   0.0000
   177 C        6.4065  16.8568   6.4065   C.3       1 RES1   0.0000
   178 C        6.9000  15.5383   6.9000   C.3       1 RES1   0.0000
   179 H        6.4175  14.5936  12.2913   H         1 RES1   0.0000
   180 H        4.6997  14.5936  10.5735   H         1 RES1   0.0000
   181 C        6.2614  15.2773  11.6813   C.2       1 RES1   0.0000
   182 C        5.3097  15.2773  10.7296   C.2       1 RES1   0.0000
   183 N        6.9617  16.4527  11.6011   N.3       1 RES1   0.0000
   184 N        5.3899  16.4527  10.0293   N.3       1 RES1   0.0000
   185 H       10.5735  14.5936   4.6997   H         1 RES1   0.0000
   186 H       12.2913  14.5936   6.4175   H         1 RES1   0.0000
   187 C       10.7296  15.2773   5.3097   C.2       1 RES1   0.0000
   188 C       11.6813  15.2773   6.2614   C.2       1 RES1   0.0000
   189 N       10.0293  16.4527   5.3899   N.3       1 RES1   0.0000
   190 N       11.6011  16.4527   6.9617   N.3       1 RES1   0.0000
   191 Zn       8.4955  16.9910  12.7432   Zn        1 RES1   0.0000
   192 Zn      12.7433  16.9910   8.4955   Zn        1 RES1   0.0000
   193 N        7.9572  15.4572   3.1056   N.2       1 RES1   0.0000
   194 H        9.1972  15.6351   9.7579   H         1 RES1   0.0000
   195 H       10.0961  14.9045  10.8131   H         1 RES1   0.0000
   196 H       10.6636  15.2256   9.3875   H         1 RES1   0.0000
   197 C       10.5845  16.8568  10.5845   C.3       1 RES1   0.0000
   198 C       10.0910  15.5383  10.0910   C.3       1 RES1   0.0000
   199 H       10.8929  14.9130  13.1952   H         1 RES1   0.0000
   200 H        7.1396  16.2893  15.7286   H         1 RES1   0.0000
   201 H        6.4090  15.3904  14.6734   H         1 RES1   0.0000
   202 H        6.7301  14.8229  16.0990   H         1 RES1   0.0000
   203 H       10.8929  13.1952  14.9130   H         1 RES1   0.0000
   204 C        8.3613  14.9020  14.9020   C.2       1 RES1   0.0000
   205 C       10.2092  14.7569  13.8052   C.2       1 RES1   0.0000
   206 C        7.0428  15.3955  15.3955   C.3       1 RES1   0.0000
   207 C       10.2092  13.8052  14.7569   C.2       1 RES1   0.0000
   208 N        9.0338  15.4572  13.8854   N.2       1 RES1   0.0000
   209 N        9.0338  13.8854  15.4572   N.2       1 RES1   0.0000
   210 H       14.9130  13.1952  10.8929   H         1 RES1   0.0000
   211 H       16.2893  15.7286   7.1396   H         1 RES1   0.0000
   212 H       15.3904  14.6734   6.4090   H         1 RES1   0.0000
   213 H       14.8229  16.0990   6.7301   H         1 RES1   0.0000
   214 H       13.1952  14.9130  10.8929   H         1 RES1   0.0000
   215 C       14.9020  14.9020   8.3613   C.2       1 RES1   0.0000
   216 C       14.7569  13.8052  10.2092   C.2       1 RES1   0.0000
   217 C       15.3955  15.3955   7.0428   C.3       1 RES1   0.0000
   218 C       13.8052  14.7569  10.2092   C.2       1 RES1   0.0000
   219 N       15.4572  13.8854   9.0338   N.2       1 RES1   0.0000
   220 N       13.8854  15.4572   9.0338   N.2       1 RES1   0.0000
   221 Zn      16.9910  12.7432   8.4955   Zn        1 RES1   0.0000
   222 Zn      16.9910   8.4955   4.2477   Zn        1 RES1   0.0000
   223 H       15.6351   7.7938   7.2331   H         1 RES1   0.0000
   224 H       14.9045   6.8949   6.1779   H         1 RES1   0.0000
   225 H       15.2256   6.3274   7.6035   H         1 RES1   0.0000
   226 C       16.8568   6.4065   6.4065   C.3       1 RES1   0.0000
   227 C       15.5383   6.9000   6.9000   C.3       1 RES1   0.0000
   228 H       10.5735  12.2913   2.3974   H         1 RES1   0.0000
   229 H       12.2913  10.5735   2.3974   H         1 RES1   0.0000
   230 H       14.9130   6.0981   3.7958   H         1 RES1   0.0000
   231 H       16.2893   9.8514   1.2624   H         1 RES1   0.0000
   232 H       15.3904  10.5820   2.3176   H         1 RES1   0.0000
   233 H       14.8229  10.2609   0.8920   H         1 RES1   0.0000
   234 H        6.0981  14.9130   3.7958   H         1 RES1   0.0000
   235 H        6.0981  13.1952   2.0780   H         1 RES1   0.0000
   236 H        9.8514  15.7286   0.7017   H         1 RES1   0.0000
   237 H       10.5820  14.6734   1.6006   H         1 RES1   0.0000
   238 H       10.2609  16.0990   2.1681   H         1 RES1   0.0000
   239 H       13.1952   6.0981   2.0780   H         1 RES1   0.0000
   240 C       10.7296  11.6813   1.7137   C.2       1 RES1   0.0000
   241 C       11.6813  10.7296   1.7137   C.2       1 RES1   0.0000
   242 C       14.9020   8.6297   2.0890   C.2       1 RES1   0.0000
   243 C       14.7569   6.7818   3.1858   C.2       1 RES1   0.0000
   244 C       15.3955   9.9482   1.5955   C.3       1 RES1   0.0000
   245 C        8.6297  14.9020   2.0890   C.2       1 RES1   0.0000
   246 C        6.7818  14.7569   3.1858   C.2       1 RES1   0.0000
   247 C        9.9482  15.3955   1.5955   C.3       1 RES1   0.0000
   248 C        6.7818  13.8052   2.2341   C.2       1 RES1   0.0000
   249 C       13.8052   6.7818   2.2341   C.2       1 RES1   0.0000
   250 N       10.0293  11.6011   0.5383   N.3       1 RES1   0.0000
   251 N       11.6011  10.0293   0.5383   N.3       1 RES1   0.0000
   252 N       15.4572   7.9572   3.1056   N.2       1 RES1   0.0000
   253 N        7.9572  13.8854   1.5338   N.2       1 RES1   0.0000
   254 N       13.8854   7.9572   1.5338   N.2       1 RES1   0.0000
   255 H       14.5936  10.5735   4.6997   H         1 RES1   0.0000
   256 H       14.5936  12.2913   6.4175   H         1 RES1   0.0000
   257 C       15.2773  10.7296   5.3097   C.2       1 RES1   0.0000
   258 C       15.2773  11.6813   6.2614   C.2       1 RES1   0.0000
   259 N       16.4527  10.0293   5.3899   N.3       1 RES1   0.0000
   260 N       16.4527  11.6011   6.9617   N.3       1 RES1   0.0000
   261 H       14.5936   6.4175  12.2913   H         1 RES1   0.0000
   262 H       14.5936   4.6997  10.5735   H         1 RES1   0.0000
   263 C       15.2773   6.2614  11.6813   C.2       1 RES1   0.0000
   264 C       15.2773   5.3097  10.7296   C.2       1 RES1   0.0000
   265 N       16.4527   6.9617  11.6011   N.3       1 RES1   0.0000
   266 N       16.4527   5.3899  10.0293   N.3       1 RES1   0.0000
   267 Zn      16.9910   8.4955  12.7432   Zn        1 RES1   0.0000
   268 H       15.6351   9.7579   9.1972   H         1 RES1   0.0000
   269 H       14.9045  10.8131  10.0961   H         1 RES1   0.0000
   270 H       15.2256   9.3875  10.6636   H         1 RES1   0.0000
   271 C       16.8568  10.5845  10.5845   C.3       1 RES1   0.0000
   272 C       15.5383  10.0910  10.0910   C.3       1 RES1   0.0000
   273 H        9.1972   9.7579  15.6351   H         1 RES1   0.0000
   274 H       10.0961  10.8131  14.9045   H         1 RES1   0.0000
   275 H       10.6636   9.3875  15.2256   H         1 RES1   0.0000
   276 C       10.5845  10.5845  16.8568   C.3       1 RES1   0.0000
   277 C       10.0910  10.0910  15.5383   C.3       1 RES1   0.0000
   278 H       14.9130  10.8929  13.1952   H         1 RES1   0.0000
   279 H       16.2893   7.1396  15.7286   H         1 RES1   0.0000
   280 H       15.3904   6.4090  14.6734   H         1 RES1   0.0000
   281 H       14.8229   6.7301  16.0990   H         1 RES1   0.0000
   282 H       13.1952  10.8929  14.9130   H         1 RES1   0.0000
   283 C       14.9020   8.3613  14.9020   C.2       1 RES1   0.0000
   284 C       14.7569  10.2092  13.8052   C.2       1 RES1   0.0000
   285 C       15.3955   7.0428  15.3955   C.3       1 RES1   0.0000
   286 C       13.8052  10.2092  14.7569   C.2       1 RES1   0.0000
   287 N       15.4572   9.0338  13.8854   N.2       1 RES1   0.0000
   288 N       13.8854   9.0338  15.4572   N.2       1 RES1   0.0000
@<TRIPOS>BOND
     1     4    47    1
     2     4    53   un
     3     5    48    1
     4     5    54   un
     5     6    49    1
     6     6    57   un
     7     7    50    1
     8     7    58   un
     9     1    52    1
    10     1    55   un
    11     3    51    1
    12     3    56   un
    13     8    29    1
    14     9    30    1
    15    10    31    1
    16    11    32    1
    17    12    33    1
    18    13    34    1
    19    14    36    1
    20    15    37    1
    21    16    37    1
    22    17    37    1
    23    18    39    1
    24    19    42    1
    25    20    43    1
    26    21    43    1
    27    22    43    1
    28    23    44    1
    29    24    45    1
    30    25    40    1
    31    26    40    1
    32    27    40    1
    33    28    46    1
    34    29    34   un
    35    29    47    1
    36    30    33   un
    37    30    48    1
    38    31    32   un
    39    31    49    1
    40    32    50    1
    41    33    51    1
    42    34    52    1
    43    35    37    1
    44    35    53   un
    45    35    58   un
    46    36    46   un
    47    36    53   un
    48    38    40    1
    49    38    54   un
    50    38    57   un
    51    39    45   un
    52    39    54   un
    53    41    43    1
    54    41    55   un
    55    41    56   un
    56    42    44   un
    57    42    55   un
    58    44    56   un
    59    45    57   un
    60    46    58   un
    61    59    63    1
    62    60    63    1
    63    61    63    1
    64    62    63    1
    65    64    68    1
    66    65    68    1
    67    66    68    1
    68    67    68    1
    69    69    73    1
    70    70    73    1
    71    71    73    1
    72    72    73    1
    73    74    78    1
    74    75    78    1
    75    76    78    1
    76    77    78    1
    77    79    83    1
    78    80    83    1
    79    81    83    1
    80    82    83    1
    81    84    88    1
    82    85    88    1
    83    86    88    1
    84    87    88    1
    85    94   128   un
    86    94   162    1
    87    95   156   un
    88    95   167    1
    89    96   100    1
    90    97   100    1
    91    98   100    1
    92    99   100    1
    93    89   123    1
    94    89   125   un
    95    90   124    1
    96    90   126   un
    97   101   113    1
    98   102   114    1
    99   103   116    1
   100   104   119    1
   101   105   121    1
   102   106   120    1
   103   107   120    1
   104   108   120    1
   105   109   122    1
   106   110   117    1
   107   111   117    1
   108   112   117    1
   109   113   114   un
   110   113   123    1
   111   114   124    1
   112   115   117    1
   113   115   125   un
   114   115   128   un
   115   116   122   un
   116   116   125   un
   117   118   120    1
   118   118   126   un
   119   118   127   un
   120   119   121   un
   121   119   126   un
   122   121   127   un
   123   122   128   un
   124   127   169   un
   125    91   151    1
   126    91   153   un
   127     2   152    1
   128     2   155   un
   129   129   141    1
   130   130   142    1
   131   131   144    1
   132   132   147    1
   133   133   149    1
   134   134   148    1
   135   135   148    1
   136   136   148    1
   137   137   150    1
   138   138   145    1
   139   139   145    1
   140   140   145    1
   141   141   142   un
   142   141   151    1
   143   142   152    1
   144   143   145    1
   145   143   153   un
   146   143   156   un
   147   144   150   un
   148   144   153   un
   149   146   148    1
   150   146   154   un
   151   146   155   un
   152   147   149   un
   153   147   154   un
   154   149   155   un
   155   150   156   un
   156   154   170   un
   157   157   159    1
   158   158   160    1
   159   159   160   un
   160   159   161    1
   161   160   162    1
   162   161   171    1
   163   163   165    1
   164   164   166    1
   165   165   166   un
   166   165   167    1
   167   166   168    1
   168   168   172    1
   169   173   189    1
   170   173   193   un
   171   170   184    1
   172   174   178    1
   173   175   178    1
   174   176   178    1
   175   177   178    1
   176   179   181    1
   177   180   182    1
   178   181   182   un
   179   181   183    1
   180   182   184    1
   181   183   191    1
   182   185   187    1
   183   186   188    1
   184   187   188   un
   185   187   189    1
   186   188   190    1
   187   190   192    1
   188   191   208   un
   189   192   220   un
   190   194   198    1
   191   195   198    1
   192   196   198    1
   193   197   198    1
   194   199   205    1
   195   200   206    1
   196   201   206    1
   197   202   206    1
   198   203   207    1
   199   204   206    1
   200   204   208   un
   201   204   209   un
   202   205   207   un
   203   205   208   un
   204   207   209   un
   205   209   172   un
   206   210   216    1
   207   211   217    1
   208   212   217    1
   209   213   217    1
   210   214   218    1
   211   215   217    1
   212   215   219   un
   213   215   220   un
   214   216   218   un
   215   216   219   un
   216   218   220   un
   217   219   221   un
   218   222   252   un
   219   222   259    1
   220   169   266    1
   221   223   227    1
   222   224   227    1
   223   225   227    1
   224   226   227    1
   225    92   251    1
   226    92   254   un
   227    93   250    1
   228    93   253   un
   229   228   240    1
   230   229   241    1
   231   230   243    1
   232   231   244    1
   233   232   244    1
   234   233   244    1
   235   234   246    1
   236   235   248    1
   237   236   247    1
   238   237   247    1
   239   238   247    1
   240   239   249    1
   241   240   241   un
   242   240   250    1
   243   241   251    1
   244   242   244    1
   245   242   252   un
   246   242   254   un
   247   243   249   un
   248   243   252   un
   249   245   247    1
   250   245   193   un
   251   245   253   un
   252   246   248   un
   253   246   193   un
   254   248   253   un
   255   249   254   un
   256   255   257    1
   257   256   258    1
   258   257   258   un
   259   257   259    1
   260   258   260    1
   261   260   221    1
   262   261   263    1
   263   262   264    1
   264   263   264   un
   265   263   265    1
   266   264   266    1
   267   265   267    1
   268   267   287   un
   269   268   272    1
   270   269   272    1
   271   270   272    1
   272   271   272    1
   273   171   288   un
   274   273   277    1
   275   274   277    1
   276   275   277    1
   277   276   277    1
   278   278   284    1
   279   279   285    1
   280   280   285    1
   281   281   285    1
   282   282   286    1
   283   283   285    1
   284   283   287   un
   285   283   288   un
   286   284   286   un
   287   284   287   un
   288   286   288   un
@<TRIPOS>SUBSTRUCTURE
     1 RES1        1 GROUP             0 ****  ****    0  
@<TRIPOS>CRYSIN
   16.9910   16.9910   16.9910   90.0000   90.0000   90.0000     1     1
