@<TRIPOS>MOLECULE
ZnH10(C2N)4
  2256  2400     1     0     0
SMALL
NO_CHARGES
****
Generated from the CSD

@<TRIPOS>ATOM
     1 Zn       0.0000   4.2478   8.4955   Zn        1 RES1   0.0000
     2 Zn       0.0000   4.2478  25.4865   Zn        1 RES1   0.0000
     3 Zn       0.0000  21.2387   8.4955   Zn        1 RES1   0.0000
     4 Zn       0.0000  12.7432   8.4955   Zn        1 RES1   0.0000
     5 Zn       0.0000  21.2387  25.4865   Zn        1 RES1   0.0000
     6 Zn       0.0000  12.7433  25.4865   Zn        1 RES1   0.0000
     7 Zn       0.0000  29.7342   8.4955   Zn        1 RES1   0.0000
     8 Zn       0.0000  29.7342  25.4865   Zn        1 RES1   0.0000
     9 Zn       4.2478   0.0000   8.4955   Zn        1 RES1   0.0000
    10 Zn       4.2478   0.0000  25.4865   Zn        1 RES1   0.0000
    11 Zn       0.0000   8.4955   4.2477   Zn        1 RES1   0.0000
    12 Zn       8.4955   0.0000   4.2477   Zn        1 RES1   0.0000
    13 Zn       8.4955   4.2477   0.0000   Zn        1 RES1   0.0000
    14 Zn       4.2478   8.4955   0.0000   Zn        1 RES1   0.0000
    15 H        2.3974   6.4175   4.6997   H         1 RES1   0.0000
    16 H        6.4175   2.3974   4.6997   H         1 RES1   0.0000
    17 H        6.4175   4.6997   2.3974   H         1 RES1   0.0000
    18 H        4.6997   6.4175   2.3974   H         1 RES1   0.0000
    19 H        4.6997   2.3974   6.4175   H         1 RES1   0.0000
    20 H        2.3974   4.6997   6.4175   H         1 RES1   0.0000
    21 H        2.0780  10.8929   3.7958   H         1 RES1   0.0000
    22 H        0.7017   7.1396   1.2624   H         1 RES1   0.0000
    23 H        1.6006   6.4090   2.3176   H         1 RES1   0.0000
    24 H        2.1681   6.7301   0.8920   H         1 RES1   0.0000
    25 H       10.8929   2.0780   3.7958   H         1 RES1   0.0000
    26 H        2.0780   3.7958  10.8929   H         1 RES1   0.0000
    27 H        0.7017   1.2624   7.1396   H         1 RES1   0.0000
    28 H        1.6006   2.3176   6.4090   H         1 RES1   0.0000
    29 H        2.1681   0.8920   6.7301   H         1 RES1   0.0000
    30 H        3.7958   2.0780  10.8929   H         1 RES1   0.0000
    31 H       10.8929   3.7958   2.0780   H         1 RES1   0.0000
    32 H        7.1396   1.2624   0.7017   H         1 RES1   0.0000
    33 H        6.4090   2.3176   1.6006   H         1 RES1   0.0000
    34 H        6.7301   0.8920   2.1681   H         1 RES1   0.0000
    35 H        3.7958  10.8929   2.0780   H         1 RES1   0.0000
    36 C        1.7137   6.2614   5.3097   C.2       1 RES1   0.0000
    37 C        6.2614   1.7137   5.3097   C.2       1 RES1   0.0000
    38 C        6.2614   5.3097   1.7137   C.2       1 RES1   0.0000
    39 C        5.3097   6.2614   1.7137   C.2       1 RES1   0.0000
    40 C        5.3097   1.7137   6.2614   C.2       1 RES1   0.0000
    41 C        1.7137   5.3097   6.2614   C.2       1 RES1   0.0000
    42 C        2.0890   8.3613   2.0890   C.2       1 RES1   0.0000
    43 C        2.2341  10.2092   3.1858   C.2       1 RES1   0.0000
    44 C        1.5955   7.0428   1.5955   C.3       1 RES1   0.0000
    45 C        8.3613   2.0890   2.0890   C.2       1 RES1   0.0000
    46 C       10.2092   2.2341   3.1858   C.2       1 RES1   0.0000
    47 C        7.0428   1.5955   1.5955   C.3       1 RES1   0.0000
    48 C        2.0890   2.0890   8.3613   C.2       1 RES1   0.0000
    49 C        2.2341   3.1858  10.2092   C.2       1 RES1   0.0000
    50 C        1.5955   1.5955   7.0428   C.3       1 RES1   0.0000
    51 C        3.1858   2.2341  10.2092   C.2       1 RES1   0.0000
    52 C       10.2092   3.1858   2.2341   C.2       1 RES1   0.0000
    53 C        3.1858  10.2092   2.2341   C.2       1 RES1   0.0000
    54 N        0.5383   6.9617   5.3899   N.3       1 RES1   0.0000
    55 N        6.9617   0.5383   5.3899   N.3       1 RES1   0.0000
    56 N        6.9617   5.3899   0.5383   N.3       1 RES1   0.0000
    57 N        5.3899   6.9617   0.5383   N.3       1 RES1   0.0000
    58 N        5.3899   0.5383   6.9617   N.3       1 RES1   0.0000
    59 N        0.5383   5.3899   6.9617   N.3       1 RES1   0.0000
    60 N        1.5338   9.0338   3.1056   N.2       1 RES1   0.0000
    61 N        9.0338   1.5338   3.1056   N.2       1 RES1   0.0000
    62 N        1.5338   3.1056   9.0338   N.2       1 RES1   0.0000
    63 N        3.1056   1.5338   9.0338   N.2       1 RES1   0.0000
    64 N        9.0338   3.1056   1.5338   N.2       1 RES1   0.0000
    65 N        3.1056   9.0338   1.5338   N.2       1 RES1   0.0000
    66 H        7.2331   1.3559   9.1972   H         1 RES1   0.0000
    67 H        6.1779   2.0865  10.0961   H         1 RES1   0.0000
    68 H        7.6035   1.7654  10.6636   H         1 RES1   0.0000
    69 C        6.4065   0.1342  10.5845   C.3       1 RES1   0.0000
    70 C        6.9000   1.4527  10.0910   C.3       1 RES1   0.0000
    71 H        1.3559   9.7579   7.7938   H         1 RES1   0.0000
    72 H        2.0865  10.8131   6.8949   H         1 RES1   0.0000
    73 H        1.7654   9.3875   6.3274   H         1 RES1   0.0000
    74 C        0.1342  10.5845   6.4065   C.3       1 RES1   0.0000
    75 C        1.4527  10.0910   6.9000   C.3       1 RES1   0.0000
    76 H        9.1972   1.3559   7.2331   H         1 RES1   0.0000
    77 H       10.0961   2.0865   6.1779   H         1 RES1   0.0000
    78 H       10.6636   1.7654   7.6035   H         1 RES1   0.0000
    79 C       10.5845   0.1342   6.4065   C.3       1 RES1   0.0000
    80 C       10.0910   1.4527   6.9000   C.3       1 RES1   0.0000
    81 H        1.3559   7.7938   9.7579   H         1 RES1   0.0000
    82 H        2.0865   6.8949  10.8131   H         1 RES1   0.0000
    83 H        1.7654   6.3274   9.3875   H         1 RES1   0.0000
    84 C        0.1342   6.4065  10.5845   C.3       1 RES1   0.0000
    85 C        1.4527   6.9000  10.0910   C.3       1 RES1   0.0000
    86 H        9.1972   7.2331   1.3559   H         1 RES1   0.0000
    87 H       10.0961   6.1779   2.0865   H         1 RES1   0.0000
    88 H       10.6636   7.6035   1.7654   H         1 RES1   0.0000
    89 C       10.5845   6.4065   0.1342   C.3       1 RES1   0.0000
    90 C       10.0910   6.9000   1.4527   C.3       1 RES1   0.0000
    91 H        7.7938   9.7579   1.3559   H         1 RES1   0.0000
    92 H        6.8949  10.8131   2.0865   H         1 RES1   0.0000
    93 H        6.3274   9.3875   1.7654   H         1 RES1   0.0000
    94 C        6.4065  10.5845   0.1342   C.3       1 RES1   0.0000
    95 C        6.9000  10.0910   1.4527   C.3       1 RES1   0.0000
    96 Zn       8.4955   0.0000  12.7432   Zn        1 RES1   0.0000
    97 Zn      12.7432   0.0000   8.4955   Zn        1 RES1   0.0000
    98 Zn       0.0000   8.4955  12.7432   Zn        1 RES1   0.0000
    99 Zn      12.7432   8.4955   0.0000   Zn        1 RES1   0.0000
   100 Zn       8.4955  12.7432   0.0000   Zn        1 RES1   0.0000
   101 Zn       0.0000   8.4955  21.2387   Zn        1 RES1   0.0000
   102 Zn       8.4955   0.0000  21.2387   Zn        1 RES1   0.0000
   103 Zn       8.4955   4.2478  16.9910   Zn        1 RES1   0.0000
   104 Zn       4.2478   8.4955  16.9910   Zn        1 RES1   0.0000
   105 H        2.3974   6.4175  21.6907   H         1 RES1   0.0000
   106 H        6.4175   2.3974  21.6907   H         1 RES1   0.0000
   107 H        6.4175   4.6997  19.3884   H         1 RES1   0.0000
   108 H        7.7938   7.2331  15.6351   H         1 RES1   0.0000
   109 H        6.8949   6.1779  14.9045   H         1 RES1   0.0000
   110 H        6.3274   7.6035  15.2256   H         1 RES1   0.0000
   111 H        4.6997   6.4175  19.3884   H         1 RES1   0.0000
   112 H        4.6997   2.3974  23.4085   H         1 RES1   0.0000
   113 H        2.3974   4.6997  23.4085   H         1 RES1   0.0000
   114 H        2.0780  10.8929  20.7868   H         1 RES1   0.0000
   115 H        0.7017   7.1396  18.2534   H         1 RES1   0.0000
   116 H        1.6006   6.4090  19.3086   H         1 RES1   0.0000
   117 H        2.1681   6.7301  17.8830   H         1 RES1   0.0000
   118 H       10.8929   2.0780  20.7868   H         1 RES1   0.0000
   119 H        2.0780   3.7958  27.8839   H         1 RES1   0.0000
   120 H        0.7017   1.2624  24.1306   H         1 RES1   0.0000
   121 H        1.6006   2.3176  23.4000   H         1 RES1   0.0000
   122 H        2.1681   0.8920  23.7211   H         1 RES1   0.0000
   123 H        3.7958   2.0780  27.8839   H         1 RES1   0.0000
   124 H       10.8929   3.7958  19.0690   H         1 RES1   0.0000
   125 H        7.1396   1.2624  17.6927   H         1 RES1   0.0000
   126 H        6.4090   2.3176  18.5916   H         1 RES1   0.0000
   127 H        6.7301   0.8920  19.1591   H         1 RES1   0.0000
   128 H        3.7958  10.8929  19.0690   H         1 RES1   0.0000
   129 C        1.7137   6.2614  22.3007   C.2       1 RES1   0.0000
   130 C        6.2614   1.7137  22.3007   C.2       1 RES1   0.0000
   131 C        6.4065   6.4065  16.8568   C.2       1 RES1   0.0000
   132 C        6.2614   5.3097  18.7047   C.2       1 RES1   0.0000
   133 C        6.9000   6.9000  15.5383   C.3       1 RES1   0.0000
   134 C        5.3097   6.2614  18.7047   C.2       1 RES1   0.0000
   135 C        5.3097   1.7137  23.2524   C.2       1 RES1   0.0000
   136 C        1.7137   5.3097  23.2524   C.2       1 RES1   0.0000
   137 C        2.0890   8.3613  19.0800   C.2       1 RES1   0.0000
   138 C        2.2341  10.2092  20.1768   C.2       1 RES1   0.0000
   139 C        1.5955   7.0428  18.5865   C.3       1 RES1   0.0000
   140 C        8.3613   2.0890  19.0800   C.2       1 RES1   0.0000
   141 C       10.2092   2.2341  20.1768   C.2       1 RES1   0.0000
   142 C        7.0428   1.5955  18.5865   C.3       1 RES1   0.0000
   143 C        2.0890   2.0890  25.3523   C.2       1 RES1   0.0000
   144 C        2.2341   3.1858  27.2002   C.2       1 RES1   0.0000
   145 C        1.5955   1.5955  24.0338   C.3       1 RES1   0.0000
   146 C        3.1858   2.2341  27.2002   C.2       1 RES1   0.0000
   147 C       10.2092   3.1858  19.2251   C.2       1 RES1   0.0000
   148 C        3.1858  10.2092  19.2251   C.2       1 RES1   0.0000
   149 N        0.5383   6.9617  22.3809   N.3       1 RES1   0.0000
   150 N        6.9617   0.5383  22.3809   N.3       1 RES1   0.0000
   151 N        6.9617   5.3899  17.5293   N.2       1 RES1   0.0000
   152 N        5.3899   6.9617  17.5293   N.2       1 RES1   0.0000
   153 N        5.3899   0.5383  23.9527   N.3       1 RES1   0.0000
   154 N        0.5383   5.3899  23.9527   N.3       1 RES1   0.0000
   155 N        1.5338   9.0338  20.0966   N.2       1 RES1   0.0000
   156 N        9.0338   1.5338  20.0966   N.2       1 RES1   0.0000
   157 N        1.5338   3.1056  26.0248   N.2       1 RES1   0.0000
   158 N        3.1056   1.5338  26.0248   N.2       1 RES1   0.0000
   159 N        9.0338   3.1056  18.5248   N.2       1 RES1   0.0000
   160 N        3.1056   9.0338  18.5248   N.2       1 RES1   0.0000
   161 H       10.5735   2.3974  12.2913   H         1 RES1   0.0000
   162 H       12.2913   2.3974  10.5735   H         1 RES1   0.0000
   163 H        6.0981   2.0780  13.1952   H         1 RES1   0.0000
   164 H       13.1952   2.0780   6.0981   H         1 RES1   0.0000
   165 H       14.9130   3.7958   6.0981   H         1 RES1   0.0000
   166 H       16.2893   1.2624   9.8514   H         1 RES1   0.0000
   167 H       15.3904   2.3176  10.5820   H         1 RES1   0.0000
   168 H       14.8229   0.8920  10.2609   H         1 RES1   0.0000
   169 H        6.0981   3.7958  14.9130   H         1 RES1   0.0000
   170 H        9.8514   1.2624  16.2893   H         1 RES1   0.0000
   171 H       10.5820   2.3176  15.3904   H         1 RES1   0.0000
   172 H       10.2609   0.8920  14.8229   H         1 RES1   0.0000
   173 C       10.7296   1.7137  11.6813   C.2       1 RES1   0.0000
   174 C       11.6813   1.7137  10.7296   C.2       1 RES1   0.0000
   175 C        8.6297   2.0890  14.9020   C.2       1 RES1   0.0000
   176 C        6.7818   2.2341  13.8052   C.2       1 RES1   0.0000
   177 C        9.9482   1.5955  15.3955   C.3       1 RES1   0.0000
   178 C       14.9020   2.0890   8.6297   C.2       1 RES1   0.0000
   179 C       13.8052   2.2341   6.7818   C.2       1 RES1   0.0000
   180 C       15.3955   1.5955   9.9482   C.3       1 RES1   0.0000
   181 C       14.7569   3.1858   6.7818   C.2       1 RES1   0.0000
   182 C        6.7818   3.1858  14.7569   C.2       1 RES1   0.0000
   183 N       10.0293   0.5383  11.6011   N.3       1 RES1   0.0000
   184 N       11.6011   0.5383  10.0293   N.3       1 RES1   0.0000
   185 N        7.9572   1.5338  13.8854   N.2       1 RES1   0.0000
   186 N       13.8854   1.5338   7.9572   N.2       1 RES1   0.0000
   187 N       15.4572   3.1056   7.9572   N.2       1 RES1   0.0000
   188 N        7.9572   3.1056  15.4572   N.2       1 RES1   0.0000
   189 H        2.3974  10.5735  12.2913   H         1 RES1   0.0000
   190 H        2.3974  12.2913  10.5735   H         1 RES1   0.0000
   191 H        2.0780   6.0981  13.1952   H         1 RES1   0.0000
   192 H        3.7958  14.9130   6.0981   H         1 RES1   0.0000
   193 H        2.0780  13.1952   6.0981   H         1 RES1   0.0000
   194 H        0.7017  15.7286   9.8514   H         1 RES1   0.0000
   195 H        1.6006  14.6734  10.5820   H         1 RES1   0.0000
   196 H        2.1681  16.0990  10.2609   H         1 RES1   0.0000
   197 H        3.7958   6.0981  14.9130   H         1 RES1   0.0000
   198 H        1.2624   9.8514  16.2893   H         1 RES1   0.0000
   199 H        2.3176  10.5820  15.3904   H         1 RES1   0.0000
   200 H        0.8920  10.2609  14.8229   H         1 RES1   0.0000
   201 C        1.7137  10.7296  11.6813   C.2       1 RES1   0.0000
   202 C        1.7137  11.6813  10.7296   C.2       1 RES1   0.0000
   203 C        2.0890   8.6297  14.9020   C.2       1 RES1   0.0000
   204 C        2.2341   6.7818  13.8052   C.2       1 RES1   0.0000
   205 C        1.5955   9.9482  15.3955   C.3       1 RES1   0.0000
   206 C        2.0890  14.9020   8.6297   C.2       1 RES1   0.0000
   207 C        3.1858  14.7569   6.7818   C.2       1 RES1   0.0000
   208 C        1.5955  15.3955   9.9482   C.3       1 RES1   0.0000
   209 C        2.2341  13.8052   6.7818   C.2       1 RES1   0.0000
   210 C        3.1858   6.7818  14.7569   C.2       1 RES1   0.0000
   211 N        0.5383  10.0293  11.6011   N.3       1 RES1   0.0000
   212 N        0.5383  11.6011  10.0293   N.3       1 RES1   0.0000
   213 N        1.5338   7.9572  13.8854   N.2       1 RES1   0.0000
   214 N        3.1056  15.4572   7.9572   N.2       1 RES1   0.0000
   215 N        1.5338  13.8854   7.9572   N.2       1 RES1   0.0000
   216 N        3.1056   7.9572  15.4572   N.2       1 RES1   0.0000
   217 H        7.2331   1.3559  26.1882   H         1 RES1   0.0000
   218 H        6.1779   2.0865  27.0871   H         1 RES1   0.0000
   219 H        7.6035   1.7654  27.6546   H         1 RES1   0.0000
   220 C        6.4065   0.1342  27.5755   C.3       1 RES1   0.0000
   221 C        6.9000   1.4527  27.0820   C.3       1 RES1   0.0000
   222 H        1.3559   9.7579  24.7848   H         1 RES1   0.0000
   223 H        2.0865  10.8131  23.8859   H         1 RES1   0.0000
   224 H        1.7654   9.3875  23.3184   H         1 RES1   0.0000
   225 C        0.1342  10.5845  23.3975   C.3       1 RES1   0.0000
   226 C        1.4527  10.0910  23.8910   C.3       1 RES1   0.0000
   227 H        9.1972   1.3559  24.2241   H         1 RES1   0.0000
   228 H       10.0961   2.0865  23.1689   H         1 RES1   0.0000
   229 H       10.6636   1.7654  24.5945   H         1 RES1   0.0000
   230 C       10.5845   0.1342  23.3975   C.3       1 RES1   0.0000
   231 C       10.0910   1.4527  23.8910   C.3       1 RES1   0.0000
   232 H        1.3559   7.7938  26.7489   H         1 RES1   0.0000
   233 H        2.0865   6.8949  27.8041   H         1 RES1   0.0000
   234 H        1.7654   6.3274  26.3785   H         1 RES1   0.0000
   235 C        0.1342   6.4065  27.5755   C.3       1 RES1   0.0000
   236 C        1.4527   6.9000  27.0820   C.3       1 RES1   0.0000
   237 H       12.2913   6.4175  14.5936   H         1 RES1   0.0000
   238 H       10.5735   4.6997  14.5936   H         1 RES1   0.0000
   239 H        9.1972   7.2331  18.3469   H         1 RES1   0.0000
   240 H       10.0961   6.1779  19.0775   H         1 RES1   0.0000
   241 H       10.6636   7.6035  18.7564   H         1 RES1   0.0000
   242 C       10.5845   6.4065  17.1252   C.2       1 RES1   0.0000
   243 C       11.6813   6.2614  15.2773   C.2       1 RES1   0.0000
   244 C       10.0910   6.9000  18.4437   C.3       1 RES1   0.0000
   245 C       10.7296   5.3097  15.2773   C.2       1 RES1   0.0000
   246 N       11.6011   6.9617  16.4527   N.2       1 RES1   0.0000
   247 N       10.0293   5.3899  16.4527   N.2       1 RES1   0.0000
   248 H        4.6997  10.5735  14.5936   H         1 RES1   0.0000
   249 H        6.4175  12.2913  14.5936   H         1 RES1   0.0000
   250 H        7.7938   9.7579  18.3469   H         1 RES1   0.0000
   251 H        6.8949  10.8131  19.0775   H         1 RES1   0.0000
   252 H        6.3274   9.3875  18.7564   H         1 RES1   0.0000
   253 C        6.4065  10.5845  17.1252   C.2       1 RES1   0.0000
   254 C        5.3097  10.7296  15.2773   C.2       1 RES1   0.0000
   255 C        6.9000  10.0910  18.4437   C.3       1 RES1   0.0000
   256 C        6.2614  11.6813  15.2773   C.2       1 RES1   0.0000
   257 N        5.3899  10.0293  16.4527   N.2       1 RES1   0.0000
   258 N        6.9617  11.6011  16.4527   N.2       1 RES1   0.0000
   259 Zn      16.9910   4.2478   8.4955   Zn        1 RES1   0.0000
   260 Zn       4.2478  16.9910   8.4955   Zn        1 RES1   0.0000
   261 Zn       8.4955   0.0000  29.7342   Zn        1 RES1   0.0000
   262 Zn      12.7433   0.0000  25.4865   Zn        1 RES1   0.0000
   263 Zn       0.0000   8.4955  29.7342   Zn        1 RES1   0.0000
   264 Zn      12.7433   8.4955  16.9910   Zn        1 RES1   0.0000
   265 Zn       8.4955  12.7433  16.9910   Zn        1 RES1   0.0000
   266 Zn       8.4955   4.2478  33.9820   Zn        1 RES1   0.0000
   267 Zn       4.2478   8.4955  33.9820   Zn        1 RES1   0.0000
   268 H        7.7938   7.2331  32.6261   H         1 RES1   0.0000
   269 H        6.8949   6.1779  31.8955   H         1 RES1   0.0000
   270 H        6.3274   7.6035  32.2166   H         1 RES1   0.0000
   271 C        6.4065   6.4065  33.8478   C.3       1 RES1   0.0000
   272 C        6.9000   6.9000  32.5293   C.3       1 RES1   0.0000
   273 H       10.5735   2.3974  29.2823   H         1 RES1   0.0000
   274 H       12.2913   2.3974  27.5645   H         1 RES1   0.0000
   275 H        6.0981   2.0780  30.1862   H         1 RES1   0.0000
   276 H       13.1952   2.0780  23.0891   H         1 RES1   0.0000
   277 H       14.9130   3.7958  23.0891   H         1 RES1   0.0000
   278 H       16.2893   1.2624  26.8424   H         1 RES1   0.0000
   279 H       15.3904   2.3176  27.5730   H         1 RES1   0.0000
   280 H       14.8229   0.8920  27.2519   H         1 RES1   0.0000
   281 H        6.0981   3.7958  31.9040   H         1 RES1   0.0000
   282 H        9.8514   1.2624  33.2803   H         1 RES1   0.0000
   283 H       10.5820   2.3176  32.3814   H         1 RES1   0.0000
   284 H       10.2609   0.8920  31.8139   H         1 RES1   0.0000
   285 C       10.7296   1.7137  28.6723   C.2       1 RES1   0.0000
   286 C       11.6813   1.7137  27.7206   C.2       1 RES1   0.0000
   287 C        8.6297   2.0890  31.8930   C.2       1 RES1   0.0000
   288 C        6.7818   2.2341  30.7962   C.2       1 RES1   0.0000
   289 C        9.9482   1.5955  32.3865   C.3       1 RES1   0.0000
   290 C       14.9020   2.0890  25.6207   C.2       1 RES1   0.0000
   291 C       13.8052   2.2341  23.7728   C.2       1 RES1   0.0000
   292 C       15.3955   1.5955  26.9392   C.3       1 RES1   0.0000
   293 C       14.7569   3.1858  23.7728   C.2       1 RES1   0.0000
   294 C        6.7818   3.1858  31.7479   C.2       1 RES1   0.0000
   295 N       10.0293   0.5383  28.5921   N.3       1 RES1   0.0000
   296 N       11.6011   0.5383  27.0203   N.3       1 RES1   0.0000
   297 N        7.9572   1.5338  30.8764   N.2       1 RES1   0.0000
   298 N       13.8854   1.5338  24.9482   N.2       1 RES1   0.0000
   299 N       15.4572   3.1056  24.9482   N.2       1 RES1   0.0000
   300 N        7.9572   3.1056  32.4482   N.2       1 RES1   0.0000
   301 H        2.3974  10.5735  29.2823   H         1 RES1   0.0000
   302 H        2.3974  12.2913  27.5645   H         1 RES1   0.0000
   303 H        2.0780   6.0981  30.1862   H         1 RES1   0.0000
   304 H        3.7958  14.9130  23.0891   H         1 RES1   0.0000
   305 H        2.0780  13.1952  23.0891   H         1 RES1   0.0000
   306 H        0.7017  15.7286  26.8424   H         1 RES1   0.0000
   307 H        1.6006  14.6734  27.5730   H         1 RES1   0.0000
   308 H        2.1681  16.0990  27.2519   H         1 RES1   0.0000
   309 H        3.7958   6.0981  31.9040   H         1 RES1   0.0000
   310 H        1.2624   9.8514  33.2803   H         1 RES1   0.0000
   311 H        2.3176  10.5820  32.3814   H         1 RES1   0.0000
   312 H        0.8920  10.2609  31.8139   H         1 RES1   0.0000
   313 C        1.7137  10.7296  28.6723   C.2       1 RES1   0.0000
   314 C        1.7137  11.6813  27.7206   C.2       1 RES1   0.0000
   315 C        2.0890   8.6297  31.8930   C.2       1 RES1   0.0000
   316 C        2.2341   6.7818  30.7962   C.2       1 RES1   0.0000
   317 C        1.5955   9.9482  32.3865   C.3       1 RES1   0.0000
   318 C        2.0890  14.9020  25.6207   C.2       1 RES1   0.0000
   319 C        3.1858  14.7569  23.7728   C.2       1 RES1   0.0000
   320 C        1.5955  15.3955  26.9392   C.3       1 RES1   0.0000
   321 C        2.2341  13.8052  23.7728   C.2       1 RES1   0.0000
   322 C        3.1858   6.7818  31.7479   C.2       1 RES1   0.0000
   323 N        0.5383  10.0293  28.5921   N.3       1 RES1   0.0000
   324 N        0.5383  11.6011  27.0203   N.3       1 RES1   0.0000
   325 N        1.5338   7.9572  30.8764   N.2       1 RES1   0.0000
   326 N        3.1056  15.4572  24.9482   N.2       1 RES1   0.0000
   327 N        1.5338  13.8854  24.9482   N.2       1 RES1   0.0000
   328 N        3.1056   7.9572  32.4482   N.2       1 RES1   0.0000
   329 H       12.2913   6.4175  31.5846   H         1 RES1   0.0000
   330 H       10.5735   4.6997  31.5846   H         1 RES1   0.0000
   331 C       11.6813   6.2614  32.2683   C.2       1 RES1   0.0000
   332 C       10.7296   5.3097  32.2683   C.2       1 RES1   0.0000
   333 N       11.6011   6.9617  33.4437   N.3       1 RES1   0.0000
   334 N       10.0293   5.3899  33.4437   N.3       1 RES1   0.0000
   335 H        4.6997  10.5735  31.5846   H         1 RES1   0.0000
   336 H        6.4175  12.2913  31.5846   H         1 RES1   0.0000
   337 C        5.3097  10.7296  32.2683   C.2       1 RES1   0.0000
   338 C        6.2614  11.6813  32.2683   C.2       1 RES1   0.0000
   339 N        5.3899  10.0293  33.4437   N.3       1 RES1   0.0000
   340 N        6.9617  11.6011  33.4437   N.3       1 RES1   0.0000
   341 Zn      16.9910   4.2478  25.4865   Zn        1 RES1   0.0000
   342 Zn       4.2478  16.9910  25.4865   Zn        1 RES1   0.0000
   343 Zn      12.7433   8.4955  33.9820   Zn        1 RES1   0.0000
   344 Zn       8.4955  12.7433  33.9820   Zn        1 RES1   0.0000
   345 Zn       0.0000  25.4865   4.2477   Zn        1 RES1   0.0000
   346 Zn       8.4955  16.9910   4.2477   Zn        1 RES1   0.0000
   347 Zn       8.4955  21.2387   0.0000   Zn        1 RES1   0.0000
   348 Zn       4.2478  25.4865   0.0000   Zn        1 RES1   0.0000
   349 H        2.3974  23.4085   4.6997   H         1 RES1   0.0000
   350 H        6.4175  19.3884   4.6997   H         1 RES1   0.0000
   351 H        6.4175  21.6907   2.3974   H         1 RES1   0.0000
   352 H        4.6997  23.4085   2.3974   H         1 RES1   0.0000
   353 H        4.6997  19.3884   6.4175   H         1 RES1   0.0000
   354 H        7.2331  15.6351   7.7938   H         1 RES1   0.0000
   355 H        6.1779  14.9045   6.8949   H         1 RES1   0.0000
   356 H        7.6035  15.2256   6.3274   H         1 RES1   0.0000
   357 H        2.3974  21.6907   6.4175   H         1 RES1   0.0000
   358 H        2.0780  27.8839   3.7958   H         1 RES1   0.0000
   359 H        0.7017  24.1306   1.2624   H         1 RES1   0.0000
   360 H        1.6006  23.4000   2.3176   H         1 RES1   0.0000
   361 H        2.1681  23.7211   0.8920   H         1 RES1   0.0000
   362 H       10.8929  19.0690   3.7958   H         1 RES1   0.0000
   363 H        2.0780  20.7868  10.8929   H         1 RES1   0.0000
   364 H        0.7017  18.2534   7.1396   H         1 RES1   0.0000
   365 H        1.6006  19.3086   6.4090   H         1 RES1   0.0000
   366 H        2.1681  17.8830   6.7301   H         1 RES1   0.0000
   367 H        3.7958  19.0690  10.8929   H         1 RES1   0.0000
   368 H       10.8929  20.7868   2.0780   H         1 RES1   0.0000
   369 H        7.1396  18.2534   0.7017   H         1 RES1   0.0000
   370 H        6.4090  19.3086   1.6006   H         1 RES1   0.0000
   371 H        6.7301  17.8830   2.1681   H         1 RES1   0.0000
   372 H        3.7958  27.8839   2.0780   H         1 RES1   0.0000
   373 C        1.7137  23.2524   5.3097   C.2       1 RES1   0.0000
   374 C        6.4065  16.8568   6.4065   C.2       1 RES1   0.0000
   375 C        6.2614  18.7047   5.3097   C.2       1 RES1   0.0000
   376 C        6.9000  15.5383   6.9000   C.3       1 RES1   0.0000
   377 C        6.2614  22.3007   1.7137   C.2       1 RES1   0.0000
   378 C        5.3097  23.2524   1.7137   C.2       1 RES1   0.0000
   379 C        5.3097  18.7047   6.2614   C.2       1 RES1   0.0000
   380 C        1.7137  22.3007   6.2614   C.2       1 RES1   0.0000
   381 C        2.0890  25.3523   2.0890   C.2       1 RES1   0.0000
   382 C        2.2341  27.2002   3.1858   C.2       1 RES1   0.0000
   383 C        1.5955  24.0338   1.5955   C.3       1 RES1   0.0000
   384 C        8.3613  19.0800   2.0890   C.2       1 RES1   0.0000
   385 C       10.2092  19.2251   3.1858   C.2       1 RES1   0.0000
   386 C        7.0428  18.5865   1.5955   C.3       1 RES1   0.0000
   387 C        2.0890  19.0800   8.3613   C.2       1 RES1   0.0000
   388 C        2.2341  20.1768  10.2092   C.2       1 RES1   0.0000
   389 C        1.5955  18.5865   7.0428   C.3       1 RES1   0.0000
   390 C        3.1858  19.2251  10.2092   C.2       1 RES1   0.0000
   391 C       10.2092  20.1768   2.2341   C.2       1 RES1   0.0000
   392 C        3.1858  27.2002   2.2341   C.2       1 RES1   0.0000
   393 N        0.5383  23.9527   5.3899   N.3       1 RES1   0.0000
   394 N        6.9617  17.5293   5.3899   N.2       1 RES1   0.0000
   395 N        6.9617  22.3809   0.5383   N.3       1 RES1   0.0000
   396 N        5.3899  23.9527   0.5383   N.3       1 RES1   0.0000
   397 N        5.3899  17.5293   6.9617   N.2       1 RES1   0.0000
   398 N        0.5383  22.3809   6.9617   N.3       1 RES1   0.0000
   399 N        1.5338  26.0248   3.1056   N.2       1 RES1   0.0000
   400 N        9.0338  18.5248   3.1056   N.2       1 RES1   0.0000
   401 N        1.5338  20.0966   9.0338   N.2       1 RES1   0.0000
   402 N        3.1056  18.5248   9.0338   N.2       1 RES1   0.0000
   403 N        9.0338  20.0966   1.5338   N.2       1 RES1   0.0000
   404 N        3.1056  26.0248   1.5338   N.2       1 RES1   0.0000
   405 H        6.4175  14.5936  12.2913   H         1 RES1   0.0000
   406 H        4.6997  14.5936  10.5735   H         1 RES1   0.0000
   407 H        7.2331  18.3469   9.1972   H         1 RES1   0.0000
   408 H        6.1779  19.0775  10.0961   H         1 RES1   0.0000
   409 H        7.6035  18.7564  10.6636   H         1 RES1   0.0000
   410 C        6.4065  17.1252  10.5845   C.2       1 RES1   0.0000
   411 C        6.2614  15.2773  11.6813   C.2       1 RES1   0.0000
   412 C        6.9000  18.4437  10.0910   C.3       1 RES1   0.0000
   413 C        5.3097  15.2773  10.7296   C.2       1 RES1   0.0000
   414 N        6.9617  16.4527  11.6011   N.2       1 RES1   0.0000
   415 N        5.3899  16.4527  10.0293   N.2       1 RES1   0.0000
   416 H        1.3559  26.7489   7.7938   H         1 RES1   0.0000
   417 H        2.0865  27.8041   6.8949   H         1 RES1   0.0000
   418 H        1.7654  26.3785   6.3274   H         1 RES1   0.0000
   419 C        0.1342  27.5755   6.4065   C.3       1 RES1   0.0000
   420 C        1.4527  27.0820   6.9000   C.3       1 RES1   0.0000
   421 H       10.5735  14.5936   4.6997   H         1 RES1   0.0000
   422 H        9.1972  18.3469   7.2331   H         1 RES1   0.0000
   423 H       10.0961  19.0775   6.1779   H         1 RES1   0.0000
   424 H       10.6636  18.7564   7.6035   H         1 RES1   0.0000
   425 H       12.2913  14.5936   6.4175   H         1 RES1   0.0000
   426 C       10.5845  17.1252   6.4065   C.2       1 RES1   0.0000
   427 C       10.7296  15.2773   5.3097   C.2       1 RES1   0.0000
   428 C       10.0910  18.4437   6.9000   C.3       1 RES1   0.0000
   429 C       11.6813  15.2773   6.2614   C.2       1 RES1   0.0000
   430 N       10.0293  16.4527   5.3899   N.2       1 RES1   0.0000
   431 N       11.6011  16.4527   6.9617   N.2       1 RES1   0.0000
   432 H        1.3559  24.7848   9.7579   H         1 RES1   0.0000
   433 H        2.0865  23.8859  10.8131   H         1 RES1   0.0000
   434 H        1.7654  23.3184   9.3875   H         1 RES1   0.0000
   435 C        0.1342  23.3975  10.5845   C.3       1 RES1   0.0000
   436 C        1.4527  23.8910  10.0910   C.3       1 RES1   0.0000
   437 H        9.1972  24.2241   1.3559   H         1 RES1   0.0000
   438 H       10.0961  23.1689   2.0865   H         1 RES1   0.0000
   439 H       10.6636  24.5945   1.7654   H         1 RES1   0.0000
   440 C       10.5845  23.3975   0.1342   C.3       1 RES1   0.0000
   441 C       10.0910  23.8910   1.4527   C.3       1 RES1   0.0000
   442 H        7.7938  26.7489   1.3559   H         1 RES1   0.0000
   443 H        6.8949  27.8041   2.0865   H         1 RES1   0.0000
   444 H        6.3274  26.3785   1.7654   H         1 RES1   0.0000
   445 C        6.4065  27.5755   0.1342   C.3       1 RES1   0.0000
   446 C        6.9000  27.0820   1.4527   C.3       1 RES1   0.0000
   447 Zn       8.4955  16.9910  12.7432   Zn        1 RES1   0.0000
   448 Zn      12.7433  16.9910   8.4955   Zn        1 RES1   0.0000
   449 Zn       0.0000  25.4865  12.7432   Zn        1 RES1   0.0000
   450 Zn      12.7433  25.4865   0.0000   Zn        1 RES1   0.0000
   451 Zn       8.4955  29.7342   0.0000   Zn        1 RES1   0.0000
   452 N        7.9572  15.4572   3.1056   N.2       1 RES1   0.0000
   453 Zn       0.0000  25.4865  21.2387   Zn        1 RES1   0.0000
   454 Zn       8.4955  16.9910  21.2387   Zn        1 RES1   0.0000
   455 Zn       8.4955  21.2387  16.9910   Zn        1 RES1   0.0000
   456 Zn       4.2478  25.4865  16.9910   Zn        1 RES1   0.0000
   457 H        2.3974  23.4085  21.6907   H         1 RES1   0.0000
   458 H        6.4175  19.3884  21.6907   H         1 RES1   0.0000
   459 H        6.4175  21.6907  19.3884   H         1 RES1   0.0000
   460 H        7.7938  24.2241  15.6351   H         1 RES1   0.0000
   461 H        6.8949  23.1689  14.9045   H         1 RES1   0.0000
   462 H        6.3274  24.5945  15.2256   H         1 RES1   0.0000
   463 H        4.6997  23.4085  19.3884   H         1 RES1   0.0000
   464 H        4.6997  19.3884  23.4085   H         1 RES1   0.0000
   465 H        7.2331  15.6351  24.7848   H         1 RES1   0.0000
   466 H        6.1779  14.9045  23.8859   H         1 RES1   0.0000
   467 H        7.6035  15.2256  23.3184   H         1 RES1   0.0000
   468 H        2.3974  21.6907  23.4085   H         1 RES1   0.0000
   469 H        2.0780  27.8839  20.7868   H         1 RES1   0.0000
   470 H        0.7017  24.1306  18.2534   H         1 RES1   0.0000
   471 H        1.6006  23.4000  19.3086   H         1 RES1   0.0000
   472 H        2.1681  23.7211  17.8830   H         1 RES1   0.0000
   473 H       10.8929  19.0690  20.7868   H         1 RES1   0.0000
   474 H        2.0780  20.7868  27.8839   H         1 RES1   0.0000
   475 H        0.7017  18.2534  24.1306   H         1 RES1   0.0000
   476 H        1.6006  19.3086  23.4000   H         1 RES1   0.0000
   477 H        2.1681  17.8830  23.7211   H         1 RES1   0.0000
   478 H        3.7958  19.0690  27.8839   H         1 RES1   0.0000
   479 H       10.8929  20.7868  19.0690   H         1 RES1   0.0000
   480 H        7.1396  18.2534  17.6927   H         1 RES1   0.0000
   481 H        6.4090  19.3086  18.5916   H         1 RES1   0.0000
   482 H        6.7301  17.8830  19.1591   H         1 RES1   0.0000
   483 H        3.7958  27.8839  19.0690   H         1 RES1   0.0000
   484 C        1.7137  23.2524  22.3007   C.2       1 RES1   0.0000
   485 C        6.4065  16.8568  23.3975   C.2       1 RES1   0.0000
   486 C        6.2614  18.7047  22.3007   C.2       1 RES1   0.0000
   487 C        6.9000  15.5383  23.8910   C.3       1 RES1   0.0000
   488 C        6.4065  23.3975  16.8568   C.2       1 RES1   0.0000
   489 C        6.2614  22.3007  18.7047   C.2       1 RES1   0.0000
   490 C        6.9000  23.8910  15.5383   C.3       1 RES1   0.0000
   491 C        5.3097  23.2524  18.7047   C.2       1 RES1   0.0000
   492 C        5.3097  18.7047  23.2524   C.2       1 RES1   0.0000
   493 C        1.7137  22.3007  23.2524   C.2       1 RES1   0.0000
   494 C        2.0890  25.3523  19.0800   C.2       1 RES1   0.0000
   495 C        2.2341  27.2002  20.1768   C.2       1 RES1   0.0000
   496 C        1.5955  24.0338  18.5865   C.3       1 RES1   0.0000
   497 C        8.3613  19.0800  19.0800   C.2       1 RES1   0.0000
   498 C       10.2092  19.2251  20.1768   C.2       1 RES1   0.0000
   499 C        7.0428  18.5865  18.5865   C.3       1 RES1   0.0000
   500 C        2.0890  19.0800  25.3523   C.2       1 RES1   0.0000
   501 C        2.2341  20.1768  27.2002   C.2       1 RES1   0.0000
   502 C        1.5955  18.5865  24.0338   C.3       1 RES1   0.0000
   503 C        3.1858  19.2251  27.2002   C.2       1 RES1   0.0000
   504 C       10.2092  20.1768  19.2251   C.2       1 RES1   0.0000
   505 C        3.1858  27.2002  19.2251   C.2       1 RES1   0.0000
   506 N        0.5383  23.9527  22.3809   N.3       1 RES1   0.0000
   507 N        6.9617  17.5293  22.3809   N.2       1 RES1   0.0000
   508 N        6.9617  22.3809  17.5293   N.2       1 RES1   0.0000
   509 N        5.3899  23.9527  17.5293   N.2       1 RES1   0.0000
   510 N        5.3899  17.5293  23.9527   N.2       1 RES1   0.0000
   511 N        0.5383  22.3809  23.9527   N.3       1 RES1   0.0000
   512 N        1.5338  26.0248  20.0966   N.2       1 RES1   0.0000
   513 N        9.0338  18.5248  20.0966   N.2       1 RES1   0.0000
   514 N        1.5338  20.0966  26.0248   N.2       1 RES1   0.0000
   515 N        3.1056  18.5248  26.0248   N.2       1 RES1   0.0000
   516 N        9.0338  20.0966  18.5248   N.2       1 RES1   0.0000
   517 N        3.1056  26.0248  18.5248   N.2       1 RES1   0.0000
   518 H       10.5735  19.3884  12.2913   H         1 RES1   0.0000
   519 H        9.1972  15.6351   9.7579   H         1 RES1   0.0000
   520 H       10.0961  14.9045  10.8131   H         1 RES1   0.0000
   521 H       10.6636  15.2256   9.3875   H         1 RES1   0.0000
   522 H       12.2913  19.3884  10.5735   H         1 RES1   0.0000
   523 H        6.0981  19.0690  13.1952   H         1 RES1   0.0000
   524 H       13.1952  19.0690   6.0981   H         1 RES1   0.0000
   525 H       14.9130  20.7868   6.0981   H         1 RES1   0.0000
   526 H       16.2893  18.2534   9.8514   H         1 RES1   0.0000
   527 H       15.3904  19.3086  10.5820   H         1 RES1   0.0000
   528 H       14.8229  17.8830  10.2609   H         1 RES1   0.0000
   529 H        6.0981  20.7868  14.9130   H         1 RES1   0.0000
   530 H        9.8514  18.2534  16.2893   H         1 RES1   0.0000
   531 H       10.5820  19.3086  15.3904   H         1 RES1   0.0000
   532 H       10.2609  17.8830  14.8229   H         1 RES1   0.0000
   533 C       10.5845  16.8568  10.5845   C.2       1 RES1   0.0000
   534 C       10.7296  18.7047  11.6813   C.2       1 RES1   0.0000
   535 C       10.0910  15.5383  10.0910   C.3       1 RES1   0.0000
   536 C       11.6813  18.7047  10.7296   C.2       1 RES1   0.0000
   537 C        8.6297  19.0800  14.9020   C.2       1 RES1   0.0000
   538 C        6.7818  19.2251  13.8052   C.2       1 RES1   0.0000
   539 C        9.9482  18.5865  15.3955   C.3       1 RES1   0.0000
   540 C       14.9020  19.0800   8.6297   C.2       1 RES1   0.0000
   541 C       13.8052  19.2251   6.7818   C.2       1 RES1   0.0000
   542 C       15.3955  18.5865   9.9482   C.3       1 RES1   0.0000
   543 C       14.7569  20.1768   6.7818   C.2       1 RES1   0.0000
   544 C        6.7818  20.1768  14.7569   C.2       1 RES1   0.0000
   545 N       10.0293  17.5293  11.6011   N.2       1 RES1   0.0000
   546 N       11.6011  17.5293  10.0293   N.2       1 RES1   0.0000
   547 N        7.9572  18.5248  13.8854   N.2       1 RES1   0.0000
   548 N       13.8854  18.5248   7.9572   N.2       1 RES1   0.0000
   549 N       15.4572  20.0966   7.9572   N.2       1 RES1   0.0000
   550 N        7.9572  20.0966  15.4572   N.2       1 RES1   0.0000
   551 H        2.3974  27.5645  12.2913   H         1 RES1   0.0000
   552 H        2.3974  29.2823  10.5735   H         1 RES1   0.0000
   553 H        2.0780  23.0891  13.1952   H         1 RES1   0.0000
   554 H        3.7958  31.9040   6.0981   H         1 RES1   0.0000
   555 H        2.0780  30.1862   6.0981   H         1 RES1   0.0000
   556 H        0.7017  32.7196   9.8514   H         1 RES1   0.0000
   557 H        1.6006  31.6644  10.5820   H         1 RES1   0.0000
   558 H        2.1681  33.0900  10.2609   H         1 RES1   0.0000
   559 H        3.7958  23.0891  14.9130   H         1 RES1   0.0000
   560 H        1.2624  26.8424  16.2893   H         1 RES1   0.0000
   561 H        2.3176  27.5730  15.3904   H         1 RES1   0.0000
   562 H        0.8920  27.2519  14.8229   H         1 RES1   0.0000
   563 C        1.7137  27.7206  11.6813   C.2       1 RES1   0.0000
   564 C        1.7137  28.6723  10.7296   C.2       1 RES1   0.0000
   565 C        2.0890  25.6207  14.9020   C.2       1 RES1   0.0000
   566 C        2.2341  23.7728  13.8052   C.2       1 RES1   0.0000
   567 C        1.5955  26.9392  15.3955   C.3       1 RES1   0.0000
   568 C        2.0890  31.8930   8.6297   C.2       1 RES1   0.0000
   569 C        3.1858  31.7479   6.7818   C.2       1 RES1   0.0000
   570 C        1.5955  32.3865   9.9482   C.3       1 RES1   0.0000
   571 C        2.2341  30.7962   6.7818   C.2       1 RES1   0.0000
   572 C        3.1858  23.7728  14.7569   C.2       1 RES1   0.0000
   573 N        0.5383  27.0203  11.6011   N.3       1 RES1   0.0000
   574 N        0.5383  28.5921  10.0293   N.3       1 RES1   0.0000
   575 N        1.5338  24.9482  13.8854   N.2       1 RES1   0.0000
   576 N        3.1056  32.4482   7.9572   N.2       1 RES1   0.0000
   577 N        1.5338  30.8764   7.9572   N.2       1 RES1   0.0000
   578 N        3.1056  24.9482  15.4572   N.2       1 RES1   0.0000
   579 H        6.4175  14.5936  29.2823   H         1 RES1   0.0000
   580 H        4.6997  14.5936  27.5645   H         1 RES1   0.0000
   581 H        7.2331  18.3469  26.1882   H         1 RES1   0.0000
   582 H        6.1779  19.0775  27.0871   H         1 RES1   0.0000
   583 H        7.6035  18.7564  27.6546   H         1 RES1   0.0000
   584 C        6.4065  17.1252  27.5755   C.2       1 RES1   0.0000
   585 C        6.2614  15.2773  28.6723   C.2       1 RES1   0.0000
   586 C        6.9000  18.4437  27.0820   C.3       1 RES1   0.0000
   587 C        5.3097  15.2773  27.7206   C.2       1 RES1   0.0000
   588 N        6.9617  16.4527  28.5921   N.2       1 RES1   0.0000
   589 N        5.3899  16.4527  27.0203   N.2       1 RES1   0.0000
   590 H        1.3559  26.7489  24.7848   H         1 RES1   0.0000
   591 H        2.0865  27.8041  23.8859   H         1 RES1   0.0000
   592 H        1.7654  26.3785  23.3184   H         1 RES1   0.0000
   593 C        0.1342  27.5755  23.3975   C.3       1 RES1   0.0000
   594 C        1.4527  27.0820  23.8910   C.3       1 RES1   0.0000
   595 H       10.5735  14.5936  21.6907   H         1 RES1   0.0000
   596 H        9.1972  18.3469  24.2241   H         1 RES1   0.0000
   597 H       10.0961  19.0775  23.1689   H         1 RES1   0.0000
   598 H       10.6636  18.7564  24.5945   H         1 RES1   0.0000
   599 H       12.2913  14.5936  23.4085   H         1 RES1   0.0000
   600 C       10.5845  17.1252  23.3975   C.2       1 RES1   0.0000
   601 C       10.7296  15.2773  22.3007   C.2       1 RES1   0.0000
   602 C       10.0910  18.4437  23.8910   C.3       1 RES1   0.0000
   603 C       11.6813  15.2773  23.2524   C.2       1 RES1   0.0000
   604 N       10.0293  16.4527  22.3809   N.2       1 RES1   0.0000
   605 N       11.6011  16.4527  23.9527   N.2       1 RES1   0.0000
   606 H        1.3559  24.7848  26.7489   H         1 RES1   0.0000
   607 H        2.0865  23.8859  27.8041   H         1 RES1   0.0000
   608 H        1.7654  23.3184  26.3785   H         1 RES1   0.0000
   609 C        0.1342  23.3975  27.5755   C.3       1 RES1   0.0000
   610 C        1.4527  23.8910  27.0820   C.3       1 RES1   0.0000
   611 H       12.2913  23.4085  14.5936   H         1 RES1   0.0000
   612 H       10.5735  21.6907  14.5936   H         1 RES1   0.0000
   613 H        9.1972  24.2241  18.3469   H         1 RES1   0.0000
   614 H       10.0961  23.1689  19.0775   H         1 RES1   0.0000
   615 H       10.6636  24.5945  18.7564   H         1 RES1   0.0000
   616 C       10.5845  23.3975  17.1252   C.2       1 RES1   0.0000
   617 C       11.6813  23.2524  15.2773   C.2       1 RES1   0.0000
   618 C       10.0910  23.8910  18.4437   C.3       1 RES1   0.0000
   619 C       10.7296  22.3007  15.2773   C.2       1 RES1   0.0000
   620 N       11.6011  23.9527  16.4527   N.2       1 RES1   0.0000
   621 N       10.0293  22.3809  16.4527   N.2       1 RES1   0.0000
   622 H        4.6997  27.5645  14.5936   H         1 RES1   0.0000
   623 H        6.4175  29.2823  14.5936   H         1 RES1   0.0000
   624 H        7.7938  26.7489  18.3469   H         1 RES1   0.0000
   625 H        6.8949  27.8041  19.0775   H         1 RES1   0.0000
   626 H        6.3274  26.3785  18.7564   H         1 RES1   0.0000
   627 C        6.4065  27.5755  17.1252   C.2       1 RES1   0.0000
   628 C        5.3097  27.7206  15.2773   C.2       1 RES1   0.0000
   629 C        6.9000  27.0820  18.4437   C.3       1 RES1   0.0000
   630 C        6.2614  28.6723  15.2773   C.2       1 RES1   0.0000
   631 N        5.3899  27.0203  16.4527   N.2       1 RES1   0.0000
   632 N        6.9617  28.5921  16.4527   N.2       1 RES1   0.0000
   633 H       10.8929  14.9130  13.1952   H         1 RES1   0.0000
   634 H        7.1396  16.2893  15.7286   H         1 RES1   0.0000
   635 H        6.4090  15.3904  14.6734   H         1 RES1   0.0000
   636 H        6.7301  14.8229  16.0990   H         1 RES1   0.0000
   637 H       10.8929  13.1952  14.9130   H         1 RES1   0.0000
   638 C        8.3613  14.9020  14.9020   C.2       1 RES1   0.0000
   639 C       10.2092  14.7569  13.8052   C.2       1 RES1   0.0000
   640 C        7.0428  15.3955  15.3955   C.3       1 RES1   0.0000
   641 C       10.2092  13.8052  14.7569   C.2       1 RES1   0.0000
   642 N        9.0338  15.4572  13.8854   N.2       1 RES1   0.0000
   643 N        9.0338  13.8854  15.4572   N.2       1 RES1   0.0000
   644 H       14.9130  13.1952  10.8929   H         1 RES1   0.0000
   645 H       16.2893  15.7286   7.1396   H         1 RES1   0.0000
   646 H       15.3904  14.6734   6.4090   H         1 RES1   0.0000
   647 H       14.8229  16.0990   6.7301   H         1 RES1   0.0000
   648 H       13.1952  14.9130  10.8929   H         1 RES1   0.0000
   649 C       14.9020  14.9020   8.3613   C.2       1 RES1   0.0000
   650 C       14.7569  13.8052  10.2092   C.2       1 RES1   0.0000
   651 C       15.3955  15.3955   7.0428   C.3       1 RES1   0.0000
   652 C       13.8052  14.7569  10.2092   C.2       1 RES1   0.0000
   653 N       15.4572  13.8854   9.0338   N.2       1 RES1   0.0000
   654 N       13.8854  15.4572   9.0338   N.2       1 RES1   0.0000
   655 Zn      16.9910  21.2387   8.4955   Zn        1 RES1   0.0000
   656 Zn       4.2478  33.9820   8.4955   Zn        1 RES1   0.0000
   657 Zn       8.4955  16.9910  29.7342   Zn        1 RES1   0.0000
   658 Zn      12.7433  16.9910  25.4865   Zn        1 RES1   0.0000
   659 Zn       0.0000  25.4865  29.7342   Zn        1 RES1   0.0000
   660 Zn      16.9910  12.7432   8.4955   Zn        1 RES1   0.0000
   661 Zn      12.7433  25.4865  16.9910   Zn        1 RES1   0.0000
   662 Zn       8.4955  29.7342  16.9910   Zn        1 RES1   0.0000
   663 N        7.9572  15.4572  20.0966   N.2       1 RES1   0.0000
   664 Zn       8.4955  21.2388  33.9820   Zn        1 RES1   0.0000
   665 Zn       4.2478  25.4865  33.9820   Zn        1 RES1   0.0000
   666 H        7.7938  24.2241  32.6261   H         1 RES1   0.0000
   667 H        6.8949  23.1689  31.8955   H         1 RES1   0.0000
   668 H        6.3274  24.5945  32.2166   H         1 RES1   0.0000
   669 C        6.4065  23.3975  33.8478   C.3       1 RES1   0.0000
   670 C        6.9000  23.8910  32.5293   C.3       1 RES1   0.0000
   671 H       10.5735  19.3884  29.2823   H         1 RES1   0.0000
   672 H        9.1972  15.6351  26.7489   H         1 RES1   0.0000
   673 H       10.0961  14.9045  27.8041   H         1 RES1   0.0000
   674 H       10.6636  15.2256  26.3785   H         1 RES1   0.0000
   675 H       12.2913  19.3884  27.5645   H         1 RES1   0.0000
   676 H        6.0981  19.0690  30.1862   H         1 RES1   0.0000
   677 H       13.1952  19.0690  23.0891   H         1 RES1   0.0000
   678 H       14.9130  20.7868  23.0891   H         1 RES1   0.0000
   679 H       16.2893  18.2534  26.8424   H         1 RES1   0.0000
   680 H       15.3904  19.3086  27.5730   H         1 RES1   0.0000
   681 H       14.8229  17.8830  27.2519   H         1 RES1   0.0000
   682 H        6.0981  20.7868  31.9040   H         1 RES1   0.0000
   683 H        9.8514  18.2534  33.2803   H         1 RES1   0.0000
   684 H       10.5820  19.3086  32.3814   H         1 RES1   0.0000
   685 H       10.2609  17.8830  31.8139   H         1 RES1   0.0000
   686 C       10.5845  16.8568  27.5755   C.2       1 RES1   0.0000
   687 C       10.7296  18.7047  28.6723   C.2       1 RES1   0.0000
   688 C       10.0910  15.5383  27.0820   C.3       1 RES1   0.0000
   689 C       11.6813  18.7047  27.7206   C.2       1 RES1   0.0000
   690 C        8.6297  19.0800  31.8930   C.2       1 RES1   0.0000
   691 C        6.7818  19.2251  30.7962   C.2       1 RES1   0.0000
   692 C        9.9482  18.5865  32.3865   C.3       1 RES1   0.0000
   693 C       14.9020  19.0800  25.6207   C.2       1 RES1   0.0000
   694 C       13.8052  19.2251  23.7728   C.2       1 RES1   0.0000
   695 C       15.3955  18.5865  26.9392   C.3       1 RES1   0.0000
   696 C       14.7569  20.1768  23.7728   C.2       1 RES1   0.0000
   697 C        6.7818  20.1768  31.7479   C.2       1 RES1   0.0000
   698 N       10.0293  17.5293  28.5921   N.2       1 RES1   0.0000
   699 N       11.6011  17.5293  27.0203   N.2       1 RES1   0.0000
   700 N        7.9572  18.5248  30.8764   N.2       1 RES1   0.0000
   701 N       13.8854  18.5248  24.9482   N.2       1 RES1   0.0000
   702 N       15.4572  20.0966  24.9482   N.2       1 RES1   0.0000
   703 N        7.9572  20.0966  32.4482   N.2       1 RES1   0.0000
   704 H        2.3974  27.5645  29.2823   H         1 RES1   0.0000
   705 H        2.3974  29.2823  27.5645   H         1 RES1   0.0000
   706 H        2.0780  23.0891  30.1862   H         1 RES1   0.0000
   707 H        3.7958  31.9040  23.0891   H         1 RES1   0.0000
   708 H        2.0780  30.1862  23.0891   H         1 RES1   0.0000
   709 H        0.7017  32.7196  26.8424   H         1 RES1   0.0000
   710 H        1.6006  31.6644  27.5730   H         1 RES1   0.0000
   711 H        2.1681  33.0900  27.2519   H         1 RES1   0.0000
   712 H        3.7958  23.0891  31.9040   H         1 RES1   0.0000
   713 H        1.2624  26.8424  33.2803   H         1 RES1   0.0000
   714 H        2.3176  27.5730  32.3814   H         1 RES1   0.0000
   715 H        0.8920  27.2519  31.8139   H         1 RES1   0.0000
   716 C        1.7137  27.7206  28.6723   C.2       1 RES1   0.0000
   717 C        1.7137  28.6723  27.7206   C.2       1 RES1   0.0000
   718 C        2.0890  25.6207  31.8930   C.2       1 RES1   0.0000
   719 C        2.2341  23.7728  30.7962   C.2       1 RES1   0.0000
   720 C        1.5955  26.9392  32.3865   C.3       1 RES1   0.0000
   721 C        2.0890  31.8930  25.6207   C.2       1 RES1   0.0000
   722 C        3.1858  31.7479  23.7728   C.2       1 RES1   0.0000
   723 C        1.5955  32.3865  26.9392   C.3       1 RES1   0.0000
   724 C        2.2341  30.7962  23.7728   C.2       1 RES1   0.0000
   725 C        3.1858  23.7728  31.7479   C.2       1 RES1   0.0000
   726 N        0.5383  27.0203  28.5921   N.3       1 RES1   0.0000
   727 N        0.5383  28.5921  27.0203   N.3       1 RES1   0.0000
   728 N        1.5338  24.9482  30.8764   N.2       1 RES1   0.0000
   729 N        3.1056  32.4482  24.9482   N.2       1 RES1   0.0000
   730 N        1.5338  30.8764  24.9482   N.2       1 RES1   0.0000
   731 N        3.1056  24.9482  32.4482   N.2       1 RES1   0.0000
   732 H       12.2913  23.4085  31.5846   H         1 RES1   0.0000
   733 H       10.5735  21.6907  31.5846   H         1 RES1   0.0000
   734 C       11.6813  23.2524  32.2683   C.2       1 RES1   0.0000
   735 C       10.7296  22.3007  32.2683   C.2       1 RES1   0.0000
   736 N       11.6011  23.9527  33.4437   N.3       1 RES1   0.0000
   737 N       10.0293  22.3809  33.4437   N.3       1 RES1   0.0000
   738 H        4.6997  27.5645  31.5846   H         1 RES1   0.0000
   739 H        6.4175  29.2823  31.5846   H         1 RES1   0.0000
   740 C        5.3097  27.7206  32.2683   C.2       1 RES1   0.0000
   741 C        6.2614  28.6723  32.2683   C.2       1 RES1   0.0000
   742 N        5.3899  27.0203  33.4437   N.3       1 RES1   0.0000
   743 N        6.9617  28.5921  33.4437   N.3       1 RES1   0.0000
   744 H       10.8929  14.9130  30.1862   H         1 RES1   0.0000
   745 H        7.1396  16.2893  32.7196   H         1 RES1   0.0000
   746 H        6.4090  15.3904  31.6644   H         1 RES1   0.0000
   747 H        6.7301  14.8229  33.0900   H         1 RES1   0.0000
   748 H       10.8929  13.1952  31.9040   H         1 RES1   0.0000
   749 C        8.3613  14.9020  31.8930   C.2       1 RES1   0.0000
   750 C       10.2092  14.7569  30.7962   C.2       1 RES1   0.0000
   751 C        7.0428  15.3955  32.3865   C.3       1 RES1   0.0000
   752 C       10.2092  13.8052  31.7479   C.2       1 RES1   0.0000
   753 N        9.0338  15.4572  30.8764   N.2       1 RES1   0.0000
   754 N        9.0338  13.8854  32.4482   N.2       1 RES1   0.0000
   755 H       14.9130  13.1952  27.8839   H         1 RES1   0.0000
   756 H       16.2893  15.7286  24.1306   H         1 RES1   0.0000
   757 H       15.3904  14.6734  23.4000   H         1 RES1   0.0000
   758 H       14.8229  16.0990  23.7211   H         1 RES1   0.0000
   759 H       13.1952  14.9130  27.8839   H         1 RES1   0.0000
   760 C       14.9020  14.9020  25.3523   C.2       1 RES1   0.0000
   761 C       14.7569  13.8052  27.2002   C.2       1 RES1   0.0000
   762 C       15.3955  15.3955  24.0338   C.3       1 RES1   0.0000
   763 C       13.8052  14.7569  27.2002   C.2       1 RES1   0.0000
   764 N       15.4572  13.8854  26.0248   N.2       1 RES1   0.0000
   765 N       13.8854  15.4572  26.0248   N.2       1 RES1   0.0000
   766 Zn      16.9910  21.2387  25.4865   Zn        1 RES1   0.0000
   767 Zn       4.2478  33.9820  25.4865   Zn        1 RES1   0.0000
   768 Zn      16.9910  12.7433  25.4865   Zn        1 RES1   0.0000
   769 Zn      12.7433  25.4865  33.9820   Zn        1 RES1   0.0000
   770 Zn       8.4955  29.7343  33.9820   Zn        1 RES1   0.0000
   771 Zn       8.4955  33.9820   4.2477   Zn        1 RES1   0.0000
   772 H        7.2331  32.6261   7.7938   H         1 RES1   0.0000
   773 H        6.1779  31.8955   6.8949   H         1 RES1   0.0000
   774 H        7.6035  32.2166   6.3274   H         1 RES1   0.0000
   775 C        6.4065  33.8478   6.4065   C.3       1 RES1   0.0000
   776 C        6.9000  32.5293   6.9000   C.3       1 RES1   0.0000
   777 H        6.4175  31.5846  12.2913   H         1 RES1   0.0000
   778 H        4.6997  31.5846  10.5735   H         1 RES1   0.0000
   779 C        6.2614  32.2683  11.6813   C.2       1 RES1   0.0000
   780 C        5.3097  32.2683  10.7296   C.2       1 RES1   0.0000
   781 N        6.9617  33.4437  11.6011   N.3       1 RES1   0.0000
   782 N        5.3899  33.4437  10.0293   N.3       1 RES1   0.0000
   783 H       10.5735  31.5846   4.6997   H         1 RES1   0.0000
   784 H       12.2913  31.5846   6.4175   H         1 RES1   0.0000
   785 C       10.7296  32.2683   5.3097   C.2       1 RES1   0.0000
   786 C       11.6813  32.2683   6.2614   C.2       1 RES1   0.0000
   787 N       10.0293  33.4437   5.3899   N.3       1 RES1   0.0000
   788 N       11.6011  33.4437   6.9617   N.3       1 RES1   0.0000
   789 Zn       8.4955  33.9820  12.7432   Zn        1 RES1   0.0000
   790 Zn      12.7433  33.9820   8.4955   Zn        1 RES1   0.0000
   791 N        7.9572  32.4482   3.1056   N.2       1 RES1   0.0000
   792 Zn       8.4955  33.9820  21.2387   Zn        1 RES1   0.0000
   793 H        7.2331  32.6261  24.7848   H         1 RES1   0.0000
   794 H        6.1779  31.8955  23.8859   H         1 RES1   0.0000
   795 H        7.6035  32.2166  23.3184   H         1 RES1   0.0000
   796 C        6.4065  33.8478  23.3975   C.3       1 RES1   0.0000
   797 C        6.9000  32.5293  23.8910   C.3       1 RES1   0.0000
   798 H        9.1972  32.6261   9.7579   H         1 RES1   0.0000
   799 H       10.0961  31.8955  10.8131   H         1 RES1   0.0000
   800 H       10.6636  32.2166   9.3875   H         1 RES1   0.0000
   801 C       10.5845  33.8478  10.5845   C.3       1 RES1   0.0000
   802 C       10.0910  32.5293  10.0910   C.3       1 RES1   0.0000
   803 H        6.4175  31.5846  29.2823   H         1 RES1   0.0000
   804 H        4.6997  31.5846  27.5645   H         1 RES1   0.0000
   805 C        6.2614  32.2683  28.6723   C.2       1 RES1   0.0000
   806 C        5.3097  32.2683  27.7206   C.2       1 RES1   0.0000
   807 N        6.9617  33.4437  28.5921   N.3       1 RES1   0.0000
   808 N        5.3899  33.4437  27.0203   N.3       1 RES1   0.0000
   809 H       10.5735  31.5846  21.6907   H         1 RES1   0.0000
   810 H       12.2913  31.5846  23.4085   H         1 RES1   0.0000
   811 C       10.7296  32.2683  22.3007   C.2       1 RES1   0.0000
   812 C       11.6813  32.2683  23.2524   C.2       1 RES1   0.0000
   813 N       10.0293  33.4437  22.3809   N.3       1 RES1   0.0000
   814 N       11.6011  33.4437  23.9527   N.3       1 RES1   0.0000
   815 H       10.8929  31.9040  13.1952   H         1 RES1   0.0000
   816 H        7.1396  33.2803  15.7286   H         1 RES1   0.0000
   817 H        6.4090  32.3814  14.6734   H         1 RES1   0.0000
   818 H        6.7301  31.8139  16.0990   H         1 RES1   0.0000
   819 H       10.8929  30.1862  14.9130   H         1 RES1   0.0000
   820 C        8.3613  31.8930  14.9020   C.2       1 RES1   0.0000
   821 C       10.2092  31.7479  13.8052   C.2       1 RES1   0.0000
   822 C        7.0428  32.3865  15.3955   C.3       1 RES1   0.0000
   823 C       10.2092  30.7962  14.7569   C.2       1 RES1   0.0000
   824 N        9.0338  32.4482  13.8854   N.2       1 RES1   0.0000
   825 N        9.0338  30.8764  15.4572   N.2       1 RES1   0.0000
   826 H       14.9130  30.1862  10.8929   H         1 RES1   0.0000
   827 H       16.2893  32.7196   7.1396   H         1 RES1   0.0000
   828 H       15.3904  31.6644   6.4090   H         1 RES1   0.0000
   829 H       14.8229  33.0900   6.7301   H         1 RES1   0.0000
   830 H       13.1952  31.9040  10.8929   H         1 RES1   0.0000
   831 C       14.9020  31.8930   8.3613   C.2       1 RES1   0.0000
   832 C       14.7569  30.7962  10.2092   C.2       1 RES1   0.0000
   833 C       15.3955  32.3865   7.0428   C.3       1 RES1   0.0000
   834 C       13.8052  31.7479  10.2092   C.2       1 RES1   0.0000
   835 N       15.4572  30.8764   9.0338   N.2       1 RES1   0.0000
   836 N       13.8854  32.4482   9.0338   N.2       1 RES1   0.0000
   837 Zn       8.4955  33.9820  29.7342   Zn        1 RES1   0.0000
   838 Zn      12.7433  33.9820  25.4865   Zn        1 RES1   0.0000
   839 Zn      16.9910  29.7342   8.4955   Zn        1 RES1   0.0000
   840 N        7.9572  32.4482  20.0966   N.2       1 RES1   0.0000
   841 H        9.1972  32.6261  26.7489   H         1 RES1   0.0000
   842 H       10.0961  31.8955  27.8041   H         1 RES1   0.0000
   843 H       10.6636  32.2166  26.3785   H         1 RES1   0.0000
   844 C       10.5845  33.8478  27.5755   C.3       1 RES1   0.0000
   845 C       10.0910  32.5293  27.0820   C.3       1 RES1   0.0000
   846 H       10.8929  31.9040  30.1862   H         1 RES1   0.0000
   847 H        7.1396  33.2803  32.7196   H         1 RES1   0.0000
   848 H        6.4090  32.3814  31.6644   H         1 RES1   0.0000
   849 H        6.7301  31.8139  33.0900   H         1 RES1   0.0000
   850 H       10.8929  30.1862  31.9040   H         1 RES1   0.0000
   851 C        8.3613  31.8930  31.8930   C.2       1 RES1   0.0000
   852 C       10.2092  31.7479  30.7962   C.2       1 RES1   0.0000
   853 C        7.0428  32.3865  32.3865   C.3       1 RES1   0.0000
   854 C       10.2092  30.7962  31.7479   C.2       1 RES1   0.0000
   855 N        9.0338  32.4482  30.8764   N.2       1 RES1   0.0000
   856 N        9.0338  30.8764  32.4482   N.2       1 RES1   0.0000
   857 H       14.9130  30.1862  27.8839   H         1 RES1   0.0000
   858 H       16.2893  32.7196  24.1306   H         1 RES1   0.0000
   859 H       15.3904  31.6644  23.4000   H         1 RES1   0.0000
   860 H       14.8229  33.0900  23.7211   H         1 RES1   0.0000
   861 H       13.1952  31.9040  27.8839   H         1 RES1   0.0000
   862 C       14.9020  31.8930  25.3523   C.2       1 RES1   0.0000
   863 C       14.7569  30.7962  27.2002   C.2       1 RES1   0.0000
   864 C       15.3955  32.3865  24.0338   C.3       1 RES1   0.0000
   865 C       13.8052  31.7479  27.2002   C.2       1 RES1   0.0000
   866 N       15.4572  30.8764  26.0248   N.2       1 RES1   0.0000
   867 N       13.8854  32.4482  26.0248   N.2       1 RES1   0.0000
   868 Zn      16.9910  29.7342  25.4865   Zn        1 RES1   0.0000
   869 Zn      21.2387   0.0000   8.4955   Zn        1 RES1   0.0000
   870 Zn      21.2387   0.0000  25.4865   Zn        1 RES1   0.0000
   871 Zn      16.9910   8.4955   4.2477   Zn        1 RES1   0.0000
   872 Zn      25.4865   0.0000   4.2477   Zn        1 RES1   0.0000
   873 Zn      25.4865   4.2477   0.0000   Zn        1 RES1   0.0000
   874 Zn      21.2387   8.4955   0.0000   Zn        1 RES1   0.0000
   875 H       19.3884   6.4175   4.6997   H         1 RES1   0.0000
   876 H       15.6351   7.7938   7.2331   H         1 RES1   0.0000
   877 H       14.9045   6.8949   6.1779   H         1 RES1   0.0000
   878 H       15.2256   6.3274   7.6035   H         1 RES1   0.0000
   879 H       23.4085   2.3974   4.6997   H         1 RES1   0.0000
   880 H       23.4085   4.6997   2.3974   H         1 RES1   0.0000
   881 H       21.6907   6.4175   2.3974   H         1 RES1   0.0000
   882 H       21.6907   2.3974   6.4175   H         1 RES1   0.0000
   883 H       19.3884   4.6997   6.4175   H         1 RES1   0.0000
   884 H       19.0690  10.8929   3.7958   H         1 RES1   0.0000
   885 H       17.6927   7.1396   1.2624   H         1 RES1   0.0000
   886 H       18.5916   6.4090   2.3176   H         1 RES1   0.0000
   887 H       19.1591   6.7301   0.8920   H         1 RES1   0.0000
   888 H       27.8839   2.0780   3.7958   H         1 RES1   0.0000
   889 H       19.0690   3.7958  10.8929   H         1 RES1   0.0000
   890 H       17.6927   1.2624   7.1396   H         1 RES1   0.0000
   891 H       18.5916   2.3176   6.4090   H         1 RES1   0.0000
   892 H       19.1591   0.8920   6.7301   H         1 RES1   0.0000
   893 H       20.7868   2.0780  10.8929   H         1 RES1   0.0000
   894 H       27.8839   3.7958   2.0780   H         1 RES1   0.0000
   895 H       24.1306   1.2624   0.7017   H         1 RES1   0.0000
   896 H       23.4000   2.3176   1.6006   H         1 RES1   0.0000
   897 H       23.7211   0.8920   2.1681   H         1 RES1   0.0000
   898 H       20.7868  10.8929   2.0780   H         1 RES1   0.0000
   899 C       16.8568   6.4065   6.4065   C.2       1 RES1   0.0000
   900 C       18.7047   6.2614   5.3097   C.2       1 RES1   0.0000
   901 C       15.5383   6.9000   6.9000   C.3       1 RES1   0.0000
   902 C       23.2524   1.7137   5.3097   C.2       1 RES1   0.0000
   903 C       23.2524   5.3097   1.7137   C.2       1 RES1   0.0000
   904 C       22.3007   6.2614   1.7137   C.2       1 RES1   0.0000
   905 C       22.3007   1.7137   6.2614   C.2       1 RES1   0.0000
   906 C       18.7047   5.3097   6.2614   C.2       1 RES1   0.0000
   907 C       19.0800   8.3613   2.0890   C.2       1 RES1   0.0000
   908 C       19.2251  10.2092   3.1858   C.2       1 RES1   0.0000
   909 C       18.5865   7.0428   1.5955   C.3       1 RES1   0.0000
   910 C       25.3523   2.0890   2.0890   C.2       1 RES1   0.0000
   911 C       27.2002   2.2341   3.1858   C.2       1 RES1   0.0000
   912 C       24.0338   1.5955   1.5955   C.3       1 RES1   0.0000
   913 C       19.0800   2.0890   8.3613   C.2       1 RES1   0.0000
   914 C       19.2251   3.1858  10.2092   C.2       1 RES1   0.0000
   915 C       18.5865   1.5955   7.0428   C.3       1 RES1   0.0000
   916 C       20.1768   2.2341  10.2092   C.2       1 RES1   0.0000
   917 C       27.2002   3.1858   2.2341   C.2       1 RES1   0.0000
   918 C       20.1768  10.2092   2.2341   C.2       1 RES1   0.0000
   919 N       17.5293   6.9617   5.3899   N.2       1 RES1   0.0000
   920 N       23.9527   0.5383   5.3899   N.3       1 RES1   0.0000
   921 N       23.9527   5.3899   0.5383   N.3       1 RES1   0.0000
   922 N       22.3809   6.9617   0.5383   N.3       1 RES1   0.0000
   923 N       22.3809   0.5383   6.9617   N.3       1 RES1   0.0000
   924 N       17.5293   5.3899   6.9617   N.2       1 RES1   0.0000
   925 N       18.5248   9.0338   3.1056   N.2       1 RES1   0.0000
   926 N       26.0248   1.5338   3.1056   N.2       1 RES1   0.0000
   927 N       18.5248   3.1056   9.0338   N.2       1 RES1   0.0000
   928 N       20.0966   1.5338   9.0338   N.2       1 RES1   0.0000
   929 N       26.0248   3.1056   1.5338   N.2       1 RES1   0.0000
   930 N       20.0966   9.0338   1.5338   N.2       1 RES1   0.0000
   931 H       10.5735  12.2913   2.3974   H         1 RES1   0.0000
   932 H       12.2913  10.5735   2.3974   H         1 RES1   0.0000
   933 H       14.9130   6.0981   3.7958   H         1 RES1   0.0000
   934 H       16.2893   9.8514   1.2624   H         1 RES1   0.0000
   935 H       15.3904  10.5820   2.3176   H         1 RES1   0.0000
   936 H       14.8229  10.2609   0.8920   H         1 RES1   0.0000
   937 H        6.0981  14.9130   3.7958   H         1 RES1   0.0000
   938 H        6.0981  13.1952   2.0780   H         1 RES1   0.0000
   939 H        9.8514  15.7286   0.7017   H         1 RES1   0.0000
   940 H       10.5820  14.6734   1.6006   H         1 RES1   0.0000
   941 H       10.2609  16.0990   2.1681   H         1 RES1   0.0000
   942 H       13.1952   6.0981   2.0780   H         1 RES1   0.0000
   943 C       10.7296  11.6813   1.7137   C.2       1 RES1   0.0000
   944 C       11.6813  10.7296   1.7137   C.2       1 RES1   0.0000
   945 C       14.9020   8.6297   2.0890   C.2       1 RES1   0.0000
   946 C       14.7569   6.7818   3.1858   C.2       1 RES1   0.0000
   947 C       15.3955   9.9482   1.5955   C.3       1 RES1   0.0000
   948 C        8.6297  14.9020   2.0890   C.2       1 RES1   0.0000
   949 C        6.7818  14.7569   3.1858   C.2       1 RES1   0.0000
   950 C        9.9482  15.3955   1.5955   C.3       1 RES1   0.0000
   951 C        6.7818  13.8052   2.2341   C.2       1 RES1   0.0000
   952 C       13.8052   6.7818   2.2341   C.2       1 RES1   0.0000
   953 N       10.0293  11.6011   0.5383   N.3       1 RES1   0.0000
   954 N       11.6011  10.0293   0.5383   N.3       1 RES1   0.0000
   955 N       15.4572   7.9572   3.1056   N.2       1 RES1   0.0000
   956 N        7.9572  13.8854   1.5338   N.2       1 RES1   0.0000
   957 N       13.8854   7.9572   1.5338   N.2       1 RES1   0.0000
   958 H       24.2241   1.3559   9.1972   H         1 RES1   0.0000
   959 H       23.1689   2.0865  10.0961   H         1 RES1   0.0000
   960 H       24.5945   1.7654  10.6636   H         1 RES1   0.0000
   961 C       23.3975   0.1342  10.5845   C.3       1 RES1   0.0000
   962 C       23.8910   1.4527  10.0910   C.3       1 RES1   0.0000
   963 H       14.5936  10.5735   4.6997   H         1 RES1   0.0000
   964 H       14.5936  12.2913   6.4175   H         1 RES1   0.0000
   965 H       18.3469   9.7579   7.7938   H         1 RES1   0.0000
   966 H       19.0775  10.8131   6.8949   H         1 RES1   0.0000
   967 H       18.7564   9.3875   6.3274   H         1 RES1   0.0000
   968 C       17.1252  10.5845   6.4065   C.2       1 RES1   0.0000
   969 C       15.2773  10.7296   5.3097   C.2       1 RES1   0.0000
   970 C       18.4437  10.0910   6.9000   C.3       1 RES1   0.0000
   971 C       15.2773  11.6813   6.2614   C.2       1 RES1   0.0000
   972 N       16.4527  10.0293   5.3899   N.2       1 RES1   0.0000
   973 N       16.4527  11.6011   6.9617   N.2       1 RES1   0.0000
   974 H       26.1882   1.3559   7.2331   H         1 RES1   0.0000
   975 H       27.0871   2.0865   6.1779   H         1 RES1   0.0000
   976 H       27.6546   1.7654   7.6035   H         1 RES1   0.0000
   977 C       27.5755   0.1342   6.4065   C.3       1 RES1   0.0000
   978 C       27.0820   1.4527   6.9000   C.3       1 RES1   0.0000
   979 H       14.5936   6.4175  12.2913   H         1 RES1   0.0000
   980 H       18.3469   7.7938   9.7579   H         1 RES1   0.0000
   981 H       19.0775   6.8949  10.8131   H         1 RES1   0.0000
   982 H       18.7564   6.3274   9.3875   H         1 RES1   0.0000
   983 H       14.5936   4.6997  10.5735   H         1 RES1   0.0000
   984 C       17.1252   6.4065  10.5845   C.2       1 RES1   0.0000
   985 C       15.2773   6.2614  11.6813   C.2       1 RES1   0.0000
   986 C       18.4437   6.9000  10.0910   C.3       1 RES1   0.0000
   987 C       15.2773   5.3097  10.7296   C.2       1 RES1   0.0000
   988 N       16.4527   6.9617  11.6011   N.2       1 RES1   0.0000
   989 N       16.4527   5.3899  10.0293   N.2       1 RES1   0.0000
   990 H       26.1882   7.2331   1.3559   H         1 RES1   0.0000
   991 H       27.0871   6.1779   2.0865   H         1 RES1   0.0000
   992 H       27.6546   7.6035   1.7654   H         1 RES1   0.0000
   993 C       27.5755   6.4065   0.1342   C.3       1 RES1   0.0000
   994 C       27.0820   6.9000   1.4527   C.3       1 RES1   0.0000
   995 H       24.7848   9.7579   1.3559   H         1 RES1   0.0000
   996 H       23.8859  10.8131   2.0865   H         1 RES1   0.0000
   997 H       23.3184   9.3875   1.7654   H         1 RES1   0.0000
   998 C       23.3975  10.5845   0.1342   C.3       1 RES1   0.0000
   999 C       23.8910  10.0910   1.4527   C.3       1 RES1   0.0000
  1000 Zn      25.4865   0.0000  12.7432   Zn        1 RES1   0.0000
  1001 Zn      29.7342   0.0000   8.4955   Zn        1 RES1   0.0000
  1002 Zn      16.9910   8.4955  12.7432   Zn        1 RES1   0.0000
  1003 Zn      29.7342   8.4955   0.0000   Zn        1 RES1   0.0000
  1004 Zn      25.4865  12.7432   0.0000   Zn        1 RES1   0.0000
  1005 Zn      16.9910   8.4955  21.2387   Zn        1 RES1   0.0000
  1006 Zn      25.4865   0.0000  21.2387   Zn        1 RES1   0.0000
  1007 Zn      25.4865   4.2478  16.9910   Zn        1 RES1   0.0000
  1008 Zn      21.2387   8.4955  16.9910   Zn        1 RES1   0.0000
  1009 H       19.3884   6.4175  21.6907   H         1 RES1   0.0000
  1010 H       15.6351   7.7938  24.2241   H         1 RES1   0.0000
  1011 H       14.9045   6.8949  23.1689   H         1 RES1   0.0000
  1012 H       15.2256   6.3274  24.5945   H         1 RES1   0.0000
  1013 H       23.4085   2.3974  21.6907   H         1 RES1   0.0000
  1014 H       23.4085   4.6997  19.3884   H         1 RES1   0.0000
  1015 H       24.7848   7.2331  15.6351   H         1 RES1   0.0000
  1016 H       23.8859   6.1779  14.9045   H         1 RES1   0.0000
  1017 H       23.3184   7.6035  15.2256   H         1 RES1   0.0000
  1018 H       21.6907   6.4175  19.3884   H         1 RES1   0.0000
  1019 H       21.6907   2.3974  23.4085   H         1 RES1   0.0000
  1020 H       19.3884   4.6997  23.4085   H         1 RES1   0.0000
  1021 H       19.0690  10.8929  20.7868   H         1 RES1   0.0000
  1022 H       17.6927   7.1396  18.2534   H         1 RES1   0.0000
  1023 H       18.5916   6.4090  19.3086   H         1 RES1   0.0000
  1024 H       19.1591   6.7301  17.8830   H         1 RES1   0.0000
  1025 H       27.8839   2.0780  20.7868   H         1 RES1   0.0000
  1026 H       19.0690   3.7958  27.8839   H         1 RES1   0.0000
  1027 H       17.6927   1.2624  24.1306   H         1 RES1   0.0000
  1028 H       18.5916   2.3176  23.4000   H         1 RES1   0.0000
  1029 H       19.1591   0.8920  23.7211   H         1 RES1   0.0000
  1030 H       20.7868   2.0780  27.8839   H         1 RES1   0.0000
  1031 H       27.8839   3.7958  19.0690   H         1 RES1   0.0000
  1032 H       24.1306   1.2624  17.6927   H         1 RES1   0.0000
  1033 H       23.4000   2.3176  18.5916   H         1 RES1   0.0000
  1034 H       23.7211   0.8920  19.1591   H         1 RES1   0.0000
  1035 H       20.7868  10.8929  19.0690   H         1 RES1   0.0000
  1036 C       16.8568   6.4065  23.3975   C.2       1 RES1   0.0000
  1037 C       18.7047   6.2614  22.3007   C.2       1 RES1   0.0000
  1038 C       15.5383   6.9000  23.8910   C.3       1 RES1   0.0000
  1039 C       23.2524   1.7137  22.3007   C.2       1 RES1   0.0000
  1040 C       23.3975   6.4065  16.8568   C.2       1 RES1   0.0000
  1041 C       23.2524   5.3097  18.7047   C.2       1 RES1   0.0000
  1042 C       23.8910   6.9000  15.5383   C.3       1 RES1   0.0000
  1043 C       22.3007   6.2614  18.7047   C.2       1 RES1   0.0000
  1044 C       22.3007   1.7137  23.2524   C.2       1 RES1   0.0000
  1045 C       18.7047   5.3097  23.2524   C.2       1 RES1   0.0000
  1046 C       19.0800   8.3613  19.0800   C.2       1 RES1   0.0000
  1047 C       19.2251  10.2092  20.1768   C.2       1 RES1   0.0000
  1048 C       18.5865   7.0428  18.5865   C.3       1 RES1   0.0000
  1049 C       25.3523   2.0890  19.0800   C.2       1 RES1   0.0000
  1050 C       27.2002   2.2341  20.1768   C.2       1 RES1   0.0000
  1051 C       24.0338   1.5955  18.5865   C.3       1 RES1   0.0000
  1052 C       19.0800   2.0890  25.3523   C.2       1 RES1   0.0000
  1053 C       19.2251   3.1858  27.2002   C.2       1 RES1   0.0000
  1054 C       18.5865   1.5955  24.0338   C.3       1 RES1   0.0000
  1055 C       20.1768   2.2341  27.2002   C.2       1 RES1   0.0000
  1056 C       27.2002   3.1858  19.2251   C.2       1 RES1   0.0000
  1057 C       20.1768  10.2092  19.2251   C.2       1 RES1   0.0000
  1058 N       17.5293   6.9617  22.3809   N.2       1 RES1   0.0000
  1059 N       23.9527   0.5383  22.3809   N.3       1 RES1   0.0000
  1060 N       23.9527   5.3899  17.5293   N.2       1 RES1   0.0000
  1061 N       22.3809   6.9617  17.5293   N.2       1 RES1   0.0000
  1062 N       22.3809   0.5383  23.9527   N.3       1 RES1   0.0000
  1063 N       17.5293   5.3899  23.9527   N.2       1 RES1   0.0000
  1064 N       18.5248   9.0338  20.0966   N.2       1 RES1   0.0000
  1065 N       26.0248   1.5338  20.0966   N.2       1 RES1   0.0000
  1066 N       18.5248   3.1056  26.0248   N.2       1 RES1   0.0000
  1067 N       20.0966   1.5338  26.0248   N.2       1 RES1   0.0000
  1068 N       26.0248   3.1056  18.5248   N.2       1 RES1   0.0000
  1069 N       20.0966   9.0338  18.5248   N.2       1 RES1   0.0000
  1070 H       27.5645   2.3974  12.2913   H         1 RES1   0.0000
  1071 H       29.2823   2.3974  10.5735   H         1 RES1   0.0000
  1072 H       23.0891   2.0780  13.1952   H         1 RES1   0.0000
  1073 H       30.1862   2.0780   6.0981   H         1 RES1   0.0000
  1074 H       31.9040   3.7958   6.0981   H         1 RES1   0.0000
  1075 H       33.2803   1.2624   9.8514   H         1 RES1   0.0000
  1076 H       32.3814   2.3176  10.5820   H         1 RES1   0.0000
  1077 H       31.8139   0.8920  10.2609   H         1 RES1   0.0000
  1078 H       23.0891   3.7958  14.9130   H         1 RES1   0.0000
  1079 H       26.8424   1.2624  16.2893   H         1 RES1   0.0000
  1080 H       27.5730   2.3176  15.3904   H         1 RES1   0.0000
  1081 H       27.2519   0.8920  14.8229   H         1 RES1   0.0000
  1082 C       27.7206   1.7137  11.6813   C.2       1 RES1   0.0000
  1083 C       28.6723   1.7137  10.7296   C.2       1 RES1   0.0000
  1084 C       25.6207   2.0890  14.9020   C.2       1 RES1   0.0000
  1085 C       23.7728   2.2341  13.8052   C.2       1 RES1   0.0000
  1086 C       26.9392   1.5955  15.3955   C.3       1 RES1   0.0000
  1087 C       31.8930   2.0890   8.6297   C.2       1 RES1   0.0000
  1088 C       30.7962   2.2341   6.7818   C.2       1 RES1   0.0000
  1089 C       32.3865   1.5955   9.9482   C.3       1 RES1   0.0000
  1090 C       31.7479   3.1858   6.7818   C.2       1 RES1   0.0000
  1091 C       23.7728   3.1858  14.7569   C.2       1 RES1   0.0000
  1092 N       27.0203   0.5383  11.6011   N.3       1 RES1   0.0000
  1093 N       28.5921   0.5383  10.0293   N.3       1 RES1   0.0000
  1094 N       24.9482   1.5338  13.8854   N.2       1 RES1   0.0000
  1095 N       30.8764   1.5338   7.9572   N.2       1 RES1   0.0000
  1096 N       32.4482   3.1056   7.9572   N.2       1 RES1   0.0000
  1097 N       24.9482   3.1056  15.4572   N.2       1 RES1   0.0000
  1098 H       19.3884  10.5735  12.2913   H         1 RES1   0.0000
  1099 H       19.3884  12.2913  10.5735   H         1 RES1   0.0000
  1100 H       15.6351   9.7579   9.1972   H         1 RES1   0.0000
  1101 H       14.9045  10.8131  10.0961   H         1 RES1   0.0000
  1102 H       15.2256   9.3875  10.6636   H         1 RES1   0.0000
  1103 H       19.0690   6.0981  13.1952   H         1 RES1   0.0000
  1104 H       20.7868  14.9130   6.0981   H         1 RES1   0.0000
  1105 H       19.0690  13.1952   6.0981   H         1 RES1   0.0000
  1106 H       17.6927  15.7286   9.8514   H         1 RES1   0.0000
  1107 H       18.5916  14.6734  10.5820   H         1 RES1   0.0000
  1108 H       19.1591  16.0990  10.2609   H         1 RES1   0.0000
  1109 H       20.7868   6.0981  14.9130   H         1 RES1   0.0000
  1110 H       18.2534   9.8514  16.2893   H         1 RES1   0.0000
  1111 H       19.3086  10.5820  15.3904   H         1 RES1   0.0000
  1112 H       17.8830  10.2609  14.8229   H         1 RES1   0.0000
  1113 C       16.8568  10.5845  10.5845   C.2       1 RES1   0.0000
  1114 C       18.7047  10.7296  11.6813   C.2       1 RES1   0.0000
  1115 C       15.5383  10.0910  10.0910   C.3       1 RES1   0.0000
  1116 C       18.7047  11.6813  10.7296   C.2       1 RES1   0.0000
  1117 C       19.0800   8.6297  14.9020   C.2       1 RES1   0.0000
  1118 C       19.2251   6.7818  13.8052   C.2       1 RES1   0.0000
  1119 C       18.5865   9.9482  15.3955   C.3       1 RES1   0.0000
  1120 C       19.0800  14.9020   8.6297   C.2       1 RES1   0.0000
  1121 C       20.1768  14.7569   6.7818   C.2       1 RES1   0.0000
  1122 C       18.5865  15.3955   9.9482   C.3       1 RES1   0.0000
  1123 C       19.2251  13.8052   6.7818   C.2       1 RES1   0.0000
  1124 C       20.1768   6.7818  14.7569   C.2       1 RES1   0.0000
  1125 N       17.5293  10.0293  11.6011   N.2       1 RES1   0.0000
  1126 N       17.5293  11.6011  10.0293   N.2       1 RES1   0.0000
  1127 N       18.5248   7.9572  13.8854   N.2       1 RES1   0.0000
  1128 N       20.0966  15.4572   7.9572   N.2       1 RES1   0.0000
  1129 N       18.5248  13.8854   7.9572   N.2       1 RES1   0.0000
  1130 N       20.0966   7.9572  15.4572   N.2       1 RES1   0.0000
  1131 H       10.5735  12.2913  19.3884   H         1 RES1   0.0000
  1132 H        9.1972   9.7579  15.6351   H         1 RES1   0.0000
  1133 H       10.0961  10.8131  14.9045   H         1 RES1   0.0000
  1134 H       10.6636   9.3875  15.2256   H         1 RES1   0.0000
  1135 H       12.2913  10.5735  19.3884   H         1 RES1   0.0000
  1136 H       14.9130   6.0981  20.7868   H         1 RES1   0.0000
  1137 H       16.2893   9.8514  18.2534   H         1 RES1   0.0000
  1138 H       15.3904  10.5820  19.3086   H         1 RES1   0.0000
  1139 H       14.8229  10.2609  17.8830   H         1 RES1   0.0000
  1140 H        6.0981  14.9130  20.7868   H         1 RES1   0.0000
  1141 H        6.0981  13.1952  19.0690   H         1 RES1   0.0000
  1142 H        9.8514  15.7286  17.6927   H         1 RES1   0.0000
  1143 H       10.5820  14.6734  18.5916   H         1 RES1   0.0000
  1144 H       10.2609  16.0990  19.1591   H         1 RES1   0.0000
  1145 H       13.1952   6.0981  19.0690   H         1 RES1   0.0000
  1146 C       10.5845  10.5845  16.8568   C.2       1 RES1   0.0000
  1147 C       10.7296  11.6813  18.7047   C.2       1 RES1   0.0000
  1148 C       10.0910  10.0910  15.5383   C.3       1 RES1   0.0000
  1149 C       11.6813  10.7296  18.7047   C.2       1 RES1   0.0000
  1150 C       14.9020   8.6297  19.0800   C.2       1 RES1   0.0000
  1151 C       14.7569   6.7818  20.1768   C.2       1 RES1   0.0000
  1152 C       15.3955   9.9482  18.5865   C.3       1 RES1   0.0000
  1153 C        8.6297  14.9020  19.0800   C.2       1 RES1   0.0000
  1154 C        6.7818  14.7569  20.1768   C.2       1 RES1   0.0000
  1155 C        9.9482  15.3955  18.5865   C.3       1 RES1   0.0000
  1156 C        6.7818  13.8052  19.2251   C.2       1 RES1   0.0000
  1157 C       13.8052   6.7818  19.2251   C.2       1 RES1   0.0000
  1158 N       10.0293  11.6011  17.5293   N.2       1 RES1   0.0000
  1159 N       11.6011  10.0293  17.5293   N.2       1 RES1   0.0000
  1160 N       15.4572   7.9572  20.0966   N.2       1 RES1   0.0000
  1161 N        7.9572  13.8854  18.5248   N.2       1 RES1   0.0000
  1162 N       13.8854   7.9572  18.5248   N.2       1 RES1   0.0000
  1163 H       24.2241   1.3559  26.1882   H         1 RES1   0.0000
  1164 H       23.1689   2.0865  27.0871   H         1 RES1   0.0000
  1165 H       24.5945   1.7654  27.6546   H         1 RES1   0.0000
  1166 C       23.3975   0.1342  27.5755   C.3       1 RES1   0.0000
  1167 C       23.8910   1.4527  27.0820   C.3       1 RES1   0.0000
  1168 H       14.5936  10.5735  21.6907   H         1 RES1   0.0000
  1169 H       14.5936  12.2913  23.4085   H         1 RES1   0.0000
  1170 H       18.3469   9.7579  24.7848   H         1 RES1   0.0000
  1171 H       19.0775  10.8131  23.8859   H         1 RES1   0.0000
  1172 H       18.7564   9.3875  23.3184   H         1 RES1   0.0000
  1173 C       17.1252  10.5845  23.3975   C.2       1 RES1   0.0000
  1174 C       15.2773  10.7296  22.3007   C.2       1 RES1   0.0000
  1175 C       18.4437  10.0910  23.8910   C.3       1 RES1   0.0000
  1176 C       15.2773  11.6813  23.2524   C.2       1 RES1   0.0000
  1177 N       16.4527  10.0293  22.3809   N.2       1 RES1   0.0000
  1178 N       16.4527  11.6011  23.9527   N.2       1 RES1   0.0000
  1179 H       26.1882   1.3559  24.2241   H         1 RES1   0.0000
  1180 H       27.0871   2.0865  23.1689   H         1 RES1   0.0000
  1181 H       27.6546   1.7654  24.5945   H         1 RES1   0.0000
  1182 C       27.5755   0.1342  23.3975   C.3       1 RES1   0.0000
  1183 C       27.0820   1.4527  23.8910   C.3       1 RES1   0.0000
  1184 H       14.5936   6.4175  29.2823   H         1 RES1   0.0000
  1185 H       18.3469   7.7938  26.7489   H         1 RES1   0.0000
  1186 H       19.0775   6.8949  27.8041   H         1 RES1   0.0000
  1187 H       18.7564   6.3274  26.3785   H         1 RES1   0.0000
  1188 H       14.5936   4.6997  27.5645   H         1 RES1   0.0000
  1189 C       17.1252   6.4065  27.5755   C.2       1 RES1   0.0000
  1190 C       15.2773   6.2614  28.6723   C.2       1 RES1   0.0000
  1191 C       18.4437   6.9000  27.0820   C.3       1 RES1   0.0000
  1192 C       15.2773   5.3097  27.7206   C.2       1 RES1   0.0000
  1193 N       16.4527   6.9617  28.5921   N.2       1 RES1   0.0000
  1194 N       16.4527   5.3899  27.0203   N.2       1 RES1   0.0000
  1195 H       29.2823   6.4175  14.5936   H         1 RES1   0.0000
  1196 H       27.5645   4.6997  14.5936   H         1 RES1   0.0000
  1197 H       26.1882   7.2331  18.3469   H         1 RES1   0.0000
  1198 H       27.0871   6.1779  19.0775   H         1 RES1   0.0000
  1199 H       27.6546   7.6035  18.7564   H         1 RES1   0.0000
  1200 C       27.5755   6.4065  17.1252   C.2       1 RES1   0.0000
  1201 C       28.6723   6.2614  15.2773   C.2       1 RES1   0.0000
  1202 C       27.0820   6.9000  18.4437   C.3       1 RES1   0.0000
  1203 C       27.7206   5.3097  15.2773   C.2       1 RES1   0.0000
  1204 N       28.5921   6.9617  16.4527   N.2       1 RES1   0.0000
  1205 N       27.0203   5.3899  16.4527   N.2       1 RES1   0.0000
  1206 H       21.6907  10.5735  14.5936   H         1 RES1   0.0000
  1207 H       23.4085  12.2913  14.5936   H         1 RES1   0.0000
  1208 H       24.7848   9.7579  18.3469   H         1 RES1   0.0000
  1209 H       23.8859  10.8131  19.0775   H         1 RES1   0.0000
  1210 H       23.3184   9.3875  18.7564   H         1 RES1   0.0000
  1211 C       23.3975  10.5845  17.1252   C.2       1 RES1   0.0000
  1212 C       22.3007  10.7296  15.2773   C.2       1 RES1   0.0000
  1213 C       23.8910  10.0910  18.4437   C.3       1 RES1   0.0000
  1214 C       23.2524  11.6813  15.2773   C.2       1 RES1   0.0000
  1215 N       22.3809  10.0293  16.4527   N.2       1 RES1   0.0000
  1216 N       23.9527  11.6011  16.4527   N.2       1 RES1   0.0000
  1217 H       14.9130  10.8929  13.1952   H         1 RES1   0.0000
  1218 H       16.2893   7.1396  15.7286   H         1 RES1   0.0000
  1219 H       15.3904   6.4090  14.6734   H         1 RES1   0.0000
  1220 H       14.8229   6.7301  16.0990   H         1 RES1   0.0000
  1221 H       13.1952  10.8929  14.9130   H         1 RES1   0.0000
  1222 C       14.9020   8.3613  14.9020   C.2       1 RES1   0.0000
  1223 C       14.7569  10.2092  13.8052   C.2       1 RES1   0.0000
  1224 C       15.3955   7.0428  15.3955   C.3       1 RES1   0.0000
  1225 C       13.8052  10.2092  14.7569   C.2       1 RES1   0.0000
  1226 N       15.4572   9.0338  13.8854   N.2       1 RES1   0.0000
  1227 N       13.8854   9.0338  15.4572   N.2       1 RES1   0.0000
  1228 Zn      33.9820   4.2478   8.4955   Zn        1 RES1   0.0000
  1229 Zn      21.2387  16.9910   8.4955   Zn        1 RES1   0.0000
  1230 Zn      25.4865   0.0000  29.7342   Zn        1 RES1   0.0000
  1231 Zn      29.7342   0.0000  25.4865   Zn        1 RES1   0.0000
  1232 Zn      16.9910   8.4955  29.7342   Zn        1 RES1   0.0000
  1233 Zn      29.7342   8.4955  16.9910   Zn        1 RES1   0.0000
  1234 Zn      25.4865  12.7433  16.9910   Zn        1 RES1   0.0000
  1235 Zn      25.4865   4.2478  33.9820   Zn        1 RES1   0.0000
  1236 Zn      21.2388   8.4955  33.9820   Zn        1 RES1   0.0000
  1237 H       24.7848   7.2331  32.6261   H         1 RES1   0.0000
  1238 H       23.8859   6.1779  31.8955   H         1 RES1   0.0000
  1239 H       23.3184   7.6035  32.2166   H         1 RES1   0.0000
  1240 C       23.3975   6.4065  33.8478   C.3       1 RES1   0.0000
  1241 C       23.8910   6.9000  32.5293   C.3       1 RES1   0.0000
  1242 H       27.5645   2.3974  29.2823   H         1 RES1   0.0000
  1243 H       29.2823   2.3974  27.5645   H         1 RES1   0.0000
  1244 H       23.0891   2.0780  30.1862   H         1 RES1   0.0000
  1245 H       30.1862   2.0780  23.0891   H         1 RES1   0.0000
  1246 H       31.9040   3.7958  23.0891   H         1 RES1   0.0000
  1247 H       33.2803   1.2624  26.8424   H         1 RES1   0.0000
  1248 H       32.3814   2.3176  27.5730   H         1 RES1   0.0000
  1249 H       31.8139   0.8920  27.2519   H         1 RES1   0.0000
  1250 H       23.0891   3.7958  31.9040   H         1 RES1   0.0000
  1251 H       26.8424   1.2624  33.2803   H         1 RES1   0.0000
  1252 H       27.5730   2.3176  32.3814   H         1 RES1   0.0000
  1253 H       27.2519   0.8920  31.8139   H         1 RES1   0.0000
  1254 C       27.7206   1.7137  28.6723   C.2       1 RES1   0.0000
  1255 C       28.6723   1.7137  27.7206   C.2       1 RES1   0.0000
  1256 C       25.6207   2.0890  31.8930   C.2       1 RES1   0.0000
  1257 C       23.7728   2.2341  30.7962   C.2       1 RES1   0.0000
  1258 C       26.9392   1.5955  32.3865   C.3       1 RES1   0.0000
  1259 C       31.8930   2.0890  25.6207   C.2       1 RES1   0.0000
  1260 C       30.7962   2.2341  23.7728   C.2       1 RES1   0.0000
  1261 C       32.3865   1.5955  26.9392   C.3       1 RES1   0.0000
  1262 C       31.7479   3.1858  23.7728   C.2       1 RES1   0.0000
  1263 C       23.7728   3.1858  31.7479   C.2       1 RES1   0.0000
  1264 N       27.0203   0.5383  28.5921   N.3       1 RES1   0.0000
  1265 N       28.5921   0.5383  27.0203   N.3       1 RES1   0.0000
  1266 N       24.9482   1.5338  30.8764   N.2       1 RES1   0.0000
  1267 N       30.8764   1.5338  24.9482   N.2       1 RES1   0.0000
  1268 N       32.4482   3.1056  24.9482   N.2       1 RES1   0.0000
  1269 N       24.9482   3.1056  32.4482   N.2       1 RES1   0.0000
  1270 H       19.3884  10.5735  29.2823   H         1 RES1   0.0000
  1271 H       19.3884  12.2913  27.5645   H         1 RES1   0.0000
  1272 H       15.6351   9.7579  26.1882   H         1 RES1   0.0000
  1273 H       14.9045  10.8131  27.0871   H         1 RES1   0.0000
  1274 H       15.2256   9.3875  27.6546   H         1 RES1   0.0000
  1275 H       19.0690   6.0981  30.1862   H         1 RES1   0.0000
  1276 H       20.7868  14.9130  23.0891   H         1 RES1   0.0000
  1277 H       19.0690  13.1952  23.0891   H         1 RES1   0.0000
  1278 H       17.6927  15.7286  26.8424   H         1 RES1   0.0000
  1279 H       18.5916  14.6734  27.5730   H         1 RES1   0.0000
  1280 H       19.1591  16.0990  27.2519   H         1 RES1   0.0000
  1281 H       20.7868   6.0981  31.9040   H         1 RES1   0.0000
  1282 H       18.2534   9.8514  33.2803   H         1 RES1   0.0000
  1283 H       19.3086  10.5820  32.3814   H         1 RES1   0.0000
  1284 H       17.8830  10.2609  31.8139   H         1 RES1   0.0000
  1285 C       16.8568  10.5845  27.5755   C.2       1 RES1   0.0000
  1286 C       18.7047  10.7296  28.6723   C.2       1 RES1   0.0000
  1287 C       15.5383  10.0910  27.0820   C.3       1 RES1   0.0000
  1288 C       18.7047  11.6813  27.7206   C.2       1 RES1   0.0000
  1289 C       19.0800   8.6297  31.8930   C.2       1 RES1   0.0000
  1290 C       19.2251   6.7818  30.7962   C.2       1 RES1   0.0000
  1291 C       18.5865   9.9482  32.3865   C.3       1 RES1   0.0000
  1292 C       19.0800  14.9020  25.6207   C.2       1 RES1   0.0000
  1293 C       20.1768  14.7569  23.7728   C.2       1 RES1   0.0000
  1294 C       18.5865  15.3955  26.9392   C.3       1 RES1   0.0000
  1295 C       19.2251  13.8052  23.7728   C.2       1 RES1   0.0000
  1296 C       20.1768   6.7818  31.7479   C.2       1 RES1   0.0000
  1297 N       17.5293  10.0293  28.5921   N.2       1 RES1   0.0000
  1298 N       17.5293  11.6011  27.0203   N.2       1 RES1   0.0000
  1299 N       18.5248   7.9572  30.8764   N.2       1 RES1   0.0000
  1300 N       20.0966  15.4572  24.9482   N.2       1 RES1   0.0000
  1301 N       18.5248  13.8854  24.9482   N.2       1 RES1   0.0000
  1302 N       20.0966   7.9572  32.4482   N.2       1 RES1   0.0000
  1303 H        9.1972   9.7579  32.6261   H         1 RES1   0.0000
  1304 H       10.0961  10.8131  31.8955   H         1 RES1   0.0000
  1305 H       10.6636   9.3875  32.2166   H         1 RES1   0.0000
  1306 C       10.5845  10.5845  33.8478   C.3       1 RES1   0.0000
  1307 C       10.0910  10.0910  32.5293   C.3       1 RES1   0.0000
  1308 H       29.2823   6.4175  31.5846   H         1 RES1   0.0000
  1309 H       27.5645   4.6997  31.5846   H         1 RES1   0.0000
  1310 C       28.6723   6.2614  32.2683   C.2       1 RES1   0.0000
  1311 C       27.7206   5.3097  32.2683   C.2       1 RES1   0.0000
  1312 N       28.5921   6.9617  33.4437   N.3       1 RES1   0.0000
  1313 N       27.0203   5.3899  33.4437   N.3       1 RES1   0.0000
  1314 H       21.6907  10.5735  31.5846   H         1 RES1   0.0000
  1315 H       23.4085  12.2913  31.5846   H         1 RES1   0.0000
  1316 C       22.3007  10.7296  32.2683   C.2       1 RES1   0.0000
  1317 C       23.2524  11.6813  32.2683   C.2       1 RES1   0.0000
  1318 N       22.3809  10.0293  33.4437   N.3       1 RES1   0.0000
  1319 N       23.9527  11.6011  33.4437   N.3       1 RES1   0.0000
  1320 H       14.9130  10.8929  30.1862   H         1 RES1   0.0000
  1321 H       16.2893   7.1396  32.7196   H         1 RES1   0.0000
  1322 H       15.3904   6.4090  31.6644   H         1 RES1   0.0000
  1323 H       14.8229   6.7301  33.0900   H         1 RES1   0.0000
  1324 H       13.1952  10.8929  31.9040   H         1 RES1   0.0000
  1325 C       14.9020   8.3613  31.8930   C.2       1 RES1   0.0000
  1326 C       14.7569  10.2092  30.7962   C.2       1 RES1   0.0000
  1327 C       15.3955   7.0428  32.3865   C.3       1 RES1   0.0000
  1328 C       13.8052  10.2092  31.7479   C.2       1 RES1   0.0000
  1329 N       15.4572   9.0338  30.8764   N.2       1 RES1   0.0000
  1330 N       13.8854   9.0338  32.4482   N.2       1 RES1   0.0000
  1331 Zn      33.9820   4.2478  25.4865   Zn        1 RES1   0.0000
  1332 Zn      21.2387  16.9910  25.4865   Zn        1 RES1   0.0000
  1333 Zn      29.7343   8.4955  33.9820   Zn        1 RES1   0.0000
  1334 Zn      25.4865  12.7433  33.9820   Zn        1 RES1   0.0000
  1335 Zn      16.9910  25.4865   4.2477   Zn        1 RES1   0.0000
  1336 Zn      25.4865  16.9910   4.2477   Zn        1 RES1   0.0000
  1337 Zn      25.4865  21.2387   0.0000   Zn        1 RES1   0.0000
  1338 Zn      21.2387  25.4865   0.0000   Zn        1 RES1   0.0000
  1339 H       19.3884  23.4085   4.6997   H         1 RES1   0.0000
  1340 H       15.6351  24.7848   7.2331   H         1 RES1   0.0000
  1341 H       14.9045  23.8859   6.1779   H         1 RES1   0.0000
  1342 H       15.2256  23.3184   7.6035   H         1 RES1   0.0000
  1343 H       23.4085  19.3884   4.6997   H         1 RES1   0.0000
  1344 H       23.4085  21.6907   2.3974   H         1 RES1   0.0000
  1345 H       21.6907  23.4085   2.3974   H         1 RES1   0.0000
  1346 H       21.6907  19.3884   6.4175   H         1 RES1   0.0000
  1347 H       24.2241  15.6351   7.7938   H         1 RES1   0.0000
  1348 H       23.1689  14.9045   6.8949   H         1 RES1   0.0000
  1349 H       24.5945  15.2256   6.3274   H         1 RES1   0.0000
  1350 H       19.3884  21.6907   6.4175   H         1 RES1   0.0000
  1351 H       19.0690  27.8839   3.7958   H         1 RES1   0.0000
  1352 H       17.6927  24.1306   1.2624   H         1 RES1   0.0000
  1353 H       18.5916  23.4000   2.3176   H         1 RES1   0.0000
  1354 H       19.1591  23.7211   0.8920   H         1 RES1   0.0000
  1355 H       27.8839  19.0690   3.7958   H         1 RES1   0.0000
  1356 H       19.0690  20.7868  10.8929   H         1 RES1   0.0000
  1357 H       17.6927  18.2534   7.1396   H         1 RES1   0.0000
  1358 H       18.5916  19.3086   6.4090   H         1 RES1   0.0000
  1359 H       19.1591  17.8830   6.7301   H         1 RES1   0.0000
  1360 H       20.7868  19.0690  10.8929   H         1 RES1   0.0000
  1361 H       27.8839  20.7868   2.0780   H         1 RES1   0.0000
  1362 H       24.1306  18.2534   0.7017   H         1 RES1   0.0000
  1363 H       23.4000  19.3086   1.6006   H         1 RES1   0.0000
  1364 H       23.7211  17.8830   2.1681   H         1 RES1   0.0000
  1365 H       20.7868  27.8839   2.0780   H         1 RES1   0.0000
  1366 C       16.8568  23.3975   6.4065   C.2       1 RES1   0.0000
  1367 C       18.7047  23.2524   5.3097   C.2       1 RES1   0.0000
  1368 C       15.5383  23.8910   6.9000   C.3       1 RES1   0.0000
  1369 C       23.3975  16.8568   6.4065   C.2       1 RES1   0.0000
  1370 C       23.2524  18.7047   5.3097   C.2       1 RES1   0.0000
  1371 C       23.8910  15.5383   6.9000   C.3       1 RES1   0.0000
  1372 C       23.2524  22.3007   1.7137   C.2       1 RES1   0.0000
  1373 C       22.3007  23.2524   1.7137   C.2       1 RES1   0.0000
  1374 C       22.3007  18.7047   6.2614   C.2       1 RES1   0.0000
  1375 C       18.7047  22.3007   6.2614   C.2       1 RES1   0.0000
  1376 C       19.0800  25.3523   2.0890   C.2       1 RES1   0.0000
  1377 C       19.2251  27.2002   3.1858   C.2       1 RES1   0.0000
  1378 C       18.5865  24.0338   1.5955   C.3       1 RES1   0.0000
  1379 C       25.3523  19.0800   2.0890   C.2       1 RES1   0.0000
  1380 C       27.2002  19.2251   3.1858   C.2       1 RES1   0.0000
  1381 C       24.0338  18.5865   1.5955   C.3       1 RES1   0.0000
  1382 C       19.0800  19.0800   8.3613   C.2       1 RES1   0.0000
  1383 C       19.2251  20.1768  10.2092   C.2       1 RES1   0.0000
  1384 C       18.5865  18.5865   7.0428   C.3       1 RES1   0.0000
  1385 C       20.1768  19.2251  10.2092   C.2       1 RES1   0.0000
  1386 C       27.2002  20.1768   2.2341   C.2       1 RES1   0.0000
  1387 C       20.1768  27.2002   2.2341   C.2       1 RES1   0.0000
  1388 N       17.5293  23.9527   5.3899   N.2       1 RES1   0.0000
  1389 N       23.9527  17.5293   5.3899   N.2       1 RES1   0.0000
  1390 N       23.9527  22.3809   0.5383   N.3       1 RES1   0.0000
  1391 N       22.3809  23.9527   0.5383   N.3       1 RES1   0.0000
  1392 N       22.3809  17.5293   6.9617   N.2       1 RES1   0.0000
  1393 N       17.5293  22.3809   6.9617   N.2       1 RES1   0.0000
  1394 N       18.5248  26.0248   3.1056   N.2       1 RES1   0.0000
  1395 N       26.0248  18.5248   3.1056   N.2       1 RES1   0.0000
  1396 N       18.5248  20.0966   9.0338   N.2       1 RES1   0.0000
  1397 N       20.0966  18.5248   9.0338   N.2       1 RES1   0.0000
  1398 N       26.0248  20.0966   1.5338   N.2       1 RES1   0.0000
  1399 N       20.0966  26.0248   1.5338   N.2       1 RES1   0.0000
  1400 H       10.5735  29.2823   2.3974   H         1 RES1   0.0000
  1401 H       12.2913  27.5645   2.3974   H         1 RES1   0.0000
  1402 H       14.9130  23.0891   3.7958   H         1 RES1   0.0000
  1403 H       16.2893  26.8424   1.2624   H         1 RES1   0.0000
  1404 H       15.3904  27.5730   2.3176   H         1 RES1   0.0000
  1405 H       14.8229  27.2519   0.8920   H         1 RES1   0.0000
  1406 H        6.0981  31.9040   3.7958   H         1 RES1   0.0000
  1407 H        6.0981  30.1862   2.0780   H         1 RES1   0.0000
  1408 H        9.8514  32.7196   0.7017   H         1 RES1   0.0000
  1409 H       10.5820  31.6644   1.6006   H         1 RES1   0.0000
  1410 H       10.2609  33.0900   2.1681   H         1 RES1   0.0000
  1411 H       13.1952  23.0891   2.0780   H         1 RES1   0.0000
  1412 C       10.7296  28.6723   1.7137   C.2       1 RES1   0.0000
  1413 C       11.6813  27.7206   1.7137   C.2       1 RES1   0.0000
  1414 C       14.9020  25.6207   2.0890   C.2       1 RES1   0.0000
  1415 C       14.7569  23.7728   3.1858   C.2       1 RES1   0.0000
  1416 C       15.3955  26.9392   1.5955   C.3       1 RES1   0.0000
  1417 C        8.6297  31.8930   2.0890   C.2       1 RES1   0.0000
  1418 C        6.7818  31.7479   3.1858   C.2       1 RES1   0.0000
  1419 C        9.9482  32.3865   1.5955   C.3       1 RES1   0.0000
  1420 C        6.7818  30.7962   2.2341   C.2       1 RES1   0.0000
  1421 C       13.8052  23.7728   2.2341   C.2       1 RES1   0.0000
  1422 N       10.0293  28.5921   0.5383   N.3       1 RES1   0.0000
  1423 N       11.6011  27.0203   0.5383   N.3       1 RES1   0.0000
  1424 N       15.4572  24.9482   3.1056   N.2       1 RES1   0.0000
  1425 N        7.9572  30.8764   1.5338   N.2       1 RES1   0.0000
  1426 N       13.8854  24.9482   1.5338   N.2       1 RES1   0.0000
  1427 H       23.4085  14.5936  12.2913   H         1 RES1   0.0000
  1428 H       21.6907  14.5936  10.5735   H         1 RES1   0.0000
  1429 H       24.2241  18.3469   9.1972   H         1 RES1   0.0000
  1430 H       23.1689  19.0775  10.0961   H         1 RES1   0.0000
  1431 H       24.5945  18.7564  10.6636   H         1 RES1   0.0000
  1432 C       23.3975  17.1252  10.5845   C.2       1 RES1   0.0000
  1433 C       23.2524  15.2773  11.6813   C.2       1 RES1   0.0000
  1434 C       23.8910  18.4437  10.0910   C.3       1 RES1   0.0000
  1435 C       22.3007  15.2773  10.7296   C.2       1 RES1   0.0000
  1436 N       23.9527  16.4527  11.6011   N.2       1 RES1   0.0000
  1437 N       22.3809  16.4527  10.0293   N.2       1 RES1   0.0000
  1438 H       14.5936  27.5645   4.6997   H         1 RES1   0.0000
  1439 H       14.5936  29.2823   6.4175   H         1 RES1   0.0000
  1440 H       18.3469  26.7489   7.7938   H         1 RES1   0.0000
  1441 H       19.0775  27.8041   6.8949   H         1 RES1   0.0000
  1442 H       18.7564  26.3785   6.3274   H         1 RES1   0.0000
  1443 C       17.1252  27.5755   6.4065   C.2       1 RES1   0.0000
  1444 C       15.2773  27.7206   5.3097   C.2       1 RES1   0.0000
  1445 C       18.4437  27.0820   6.9000   C.3       1 RES1   0.0000
  1446 C       15.2773  28.6723   6.2614   C.2       1 RES1   0.0000
  1447 N       16.4527  27.0203   5.3899   N.2       1 RES1   0.0000
  1448 N       16.4527  28.5921   6.9617   N.2       1 RES1   0.0000
  1449 H       27.5645  14.5936   4.6997   H         1 RES1   0.0000
  1450 H       26.1882  18.3469   7.2331   H         1 RES1   0.0000
  1451 H       27.0871  19.0775   6.1779   H         1 RES1   0.0000
  1452 H       27.6546  18.7564   7.6035   H         1 RES1   0.0000
  1453 H       29.2823  14.5936   6.4175   H         1 RES1   0.0000
  1454 C       27.5755  17.1252   6.4065   C.2       1 RES1   0.0000
  1455 C       27.7206  15.2773   5.3097   C.2       1 RES1   0.0000
  1456 C       27.0820  18.4437   6.9000   C.3       1 RES1   0.0000
  1457 C       28.6723  15.2773   6.2614   C.2       1 RES1   0.0000
  1458 N       27.0203  16.4527   5.3899   N.2       1 RES1   0.0000
  1459 N       28.5921  16.4527   6.9617   N.2       1 RES1   0.0000
  1460 H       14.5936  23.4085  12.2913   H         1 RES1   0.0000
  1461 H       18.3469  24.7848   9.7579   H         1 RES1   0.0000
  1462 H       19.0775  23.8859  10.8131   H         1 RES1   0.0000
  1463 H       18.7564  23.3184   9.3875   H         1 RES1   0.0000
  1464 H       14.5936  21.6907  10.5735   H         1 RES1   0.0000
  1465 C       17.1252  23.3975  10.5845   C.2       1 RES1   0.0000
  1466 C       15.2773  23.2524  11.6813   C.2       1 RES1   0.0000
  1467 C       18.4437  23.8910  10.0910   C.3       1 RES1   0.0000
  1468 C       15.2773  22.3007  10.7296   C.2       1 RES1   0.0000
  1469 N       16.4527  23.9527  11.6011   N.2       1 RES1   0.0000
  1470 N       16.4527  22.3809  10.0293   N.2       1 RES1   0.0000
  1471 H       26.1882  24.2241   1.3559   H         1 RES1   0.0000
  1472 H       27.0871  23.1689   2.0865   H         1 RES1   0.0000
  1473 H       27.6546  24.5945   1.7654   H         1 RES1   0.0000
  1474 C       27.5755  23.3975   0.1342   C.3       1 RES1   0.0000
  1475 C       27.0820  23.8910   1.4527   C.3       1 RES1   0.0000
  1476 H       24.7848  26.7489   1.3559   H         1 RES1   0.0000
  1477 H       23.8859  27.8041   2.0865   H         1 RES1   0.0000
  1478 H       23.3184  26.3785   1.7654   H         1 RES1   0.0000
  1479 C       23.3975  27.5755   0.1342   C.3       1 RES1   0.0000
  1480 C       23.8910  27.0820   1.4527   C.3       1 RES1   0.0000
  1481 Zn      25.4865  16.9910  12.7432   Zn        1 RES1   0.0000
  1482 Zn      29.7342  16.9910   8.4955   Zn        1 RES1   0.0000
  1483 Zn      16.9910  25.4865  12.7432   Zn        1 RES1   0.0000
  1484 Zn      29.7342  25.4865   0.0000   Zn        1 RES1   0.0000
  1485 Zn      25.4865  29.7342   0.0000   Zn        1 RES1   0.0000
  1486 N       24.9482  15.4572   3.1056   N.2       1 RES1   0.0000
  1487 Zn      16.9910  25.4865  21.2387   Zn        1 RES1   0.0000
  1488 Zn      25.4865  16.9910  21.2387   Zn        1 RES1   0.0000
  1489 Zn      25.4865  21.2387  16.9910   Zn        1 RES1   0.0000
  1490 Zn      21.2387  25.4865  16.9910   Zn        1 RES1   0.0000
  1491 H       19.3884  23.4085  21.6907   H         1 RES1   0.0000
  1492 H       15.6351  24.7848  24.2241   H         1 RES1   0.0000
  1493 H       14.9045  23.8859  23.1689   H         1 RES1   0.0000
  1494 H       15.2256  23.3184  24.5945   H         1 RES1   0.0000
  1495 H       23.4085  19.3884  21.6907   H         1 RES1   0.0000
  1496 H       23.4085  21.6907  19.3884   H         1 RES1   0.0000
  1497 H       24.7848  24.2241  15.6351   H         1 RES1   0.0000
  1498 H       23.8859  23.1689  14.9045   H         1 RES1   0.0000
  1499 H       23.3184  24.5945  15.2256   H         1 RES1   0.0000
  1500 H       21.6907  23.4085  19.3884   H         1 RES1   0.0000
  1501 H       21.6907  19.3884  23.4085   H         1 RES1   0.0000
  1502 H       24.2241  15.6351  24.7848   H         1 RES1   0.0000
  1503 H       23.1689  14.9045  23.8859   H         1 RES1   0.0000
  1504 H       24.5945  15.2256  23.3184   H         1 RES1   0.0000
  1505 H       19.3884  21.6907  23.4085   H         1 RES1   0.0000
  1506 H       19.0690  27.8839  20.7868   H         1 RES1   0.0000
  1507 H       17.6927  24.1306  18.2534   H         1 RES1   0.0000
  1508 H       18.5916  23.4000  19.3086   H         1 RES1   0.0000
  1509 H       19.1591  23.7211  17.8830   H         1 RES1   0.0000
  1510 H       27.8839  19.0690  20.7868   H         1 RES1   0.0000
  1511 H       19.0690  20.7868  27.8839   H         1 RES1   0.0000
  1512 H       17.6927  18.2534  24.1306   H         1 RES1   0.0000
  1513 H       18.5916  19.3086  23.4000   H         1 RES1   0.0000
  1514 H       19.1591  17.8830  23.7211   H         1 RES1   0.0000
  1515 H       20.7868  19.0690  27.8839   H         1 RES1   0.0000
  1516 H       27.8839  20.7868  19.0690   H         1 RES1   0.0000
  1517 H       24.1306  18.2534  17.6927   H         1 RES1   0.0000
  1518 H       23.4000  19.3086  18.5916   H         1 RES1   0.0000
  1519 H       23.7211  17.8830  19.1591   H         1 RES1   0.0000
  1520 H       20.7868  27.8839  19.0690   H         1 RES1   0.0000
  1521 C       16.8568  23.3975  23.3975   C.2       1 RES1   0.0000
  1522 C       18.7047  23.2524  22.3007   C.2       1 RES1   0.0000
  1523 C       15.5383  23.8910  23.8910   C.3       1 RES1   0.0000
  1524 C       23.3975  16.8568  23.3975   C.2       1 RES1   0.0000
  1525 C       23.2524  18.7047  22.3007   C.2       1 RES1   0.0000
  1526 C       23.8910  15.5383  23.8910   C.3       1 RES1   0.0000
  1527 C       23.3975  23.3975  16.8568   C.2       1 RES1   0.0000
  1528 C       23.2524  22.3007  18.7047   C.2       1 RES1   0.0000
  1529 C       23.8910  23.8910  15.5383   C.3       1 RES1   0.0000
  1530 C       22.3007  23.2524  18.7047   C.2       1 RES1   0.0000
  1531 C       22.3007  18.7047  23.2524   C.2       1 RES1   0.0000
  1532 C       18.7047  22.3007  23.2524   C.2       1 RES1   0.0000
  1533 C       19.0800  25.3523  19.0800   C.2       1 RES1   0.0000
  1534 C       19.2251  27.2002  20.1768   C.2       1 RES1   0.0000
  1535 C       18.5865  24.0338  18.5865   C.3       1 RES1   0.0000
  1536 C       25.3523  19.0800  19.0800   C.2       1 RES1   0.0000
  1537 C       27.2002  19.2251  20.1768   C.2       1 RES1   0.0000
  1538 C       24.0338  18.5865  18.5865   C.3       1 RES1   0.0000
  1539 C       19.0800  19.0800  25.3523   C.2       1 RES1   0.0000
  1540 C       19.2251  20.1768  27.2002   C.2       1 RES1   0.0000
  1541 C       18.5865  18.5865  24.0338   C.3       1 RES1   0.0000
  1542 C       20.1768  19.2251  27.2002   C.2       1 RES1   0.0000
  1543 C       27.2002  20.1768  19.2251   C.2       1 RES1   0.0000
  1544 C       20.1768  27.2002  19.2251   C.2       1 RES1   0.0000
  1545 N       17.5293  23.9527  22.3809   N.2       1 RES1   0.0000
  1546 N       23.9527  17.5293  22.3809   N.2       1 RES1   0.0000
  1547 N       23.9527  22.3809  17.5293   N.2       1 RES1   0.0000
  1548 N       22.3809  23.9527  17.5293   N.2       1 RES1   0.0000
  1549 N       22.3809  17.5293  23.9527   N.2       1 RES1   0.0000
  1550 N       17.5293  22.3809  23.9527   N.2       1 RES1   0.0000
  1551 N       18.5248  26.0248  20.0966   N.2       1 RES1   0.0000
  1552 N       26.0248  18.5248  20.0966   N.2       1 RES1   0.0000
  1553 N       18.5248  20.0966  26.0248   N.2       1 RES1   0.0000
  1554 N       20.0966  18.5248  26.0248   N.2       1 RES1   0.0000
  1555 N       26.0248  20.0966  18.5248   N.2       1 RES1   0.0000
  1556 N       20.0966  26.0248  18.5248   N.2       1 RES1   0.0000
  1557 H       27.5645  19.3884  12.2913   H         1 RES1   0.0000
  1558 H       26.1882  15.6351   9.7579   H         1 RES1   0.0000
  1559 H       27.0871  14.9045  10.8131   H         1 RES1   0.0000
  1560 H       27.6546  15.2256   9.3875   H         1 RES1   0.0000
  1561 H       29.2823  19.3884  10.5735   H         1 RES1   0.0000
  1562 H       23.0891  19.0690  13.1952   H         1 RES1   0.0000
  1563 H       30.1862  19.0690   6.0981   H         1 RES1   0.0000
  1564 H       31.9040  20.7868   6.0981   H         1 RES1   0.0000
  1565 H       33.2803  18.2534   9.8514   H         1 RES1   0.0000
  1566 H       32.3814  19.3086  10.5820   H         1 RES1   0.0000
  1567 H       31.8139  17.8830  10.2609   H         1 RES1   0.0000
  1568 H       23.0891  20.7868  14.9130   H         1 RES1   0.0000
  1569 H       26.8424  18.2534  16.2893   H         1 RES1   0.0000
  1570 H       27.5730  19.3086  15.3904   H         1 RES1   0.0000
  1571 H       27.2519  17.8830  14.8229   H         1 RES1   0.0000
  1572 C       27.5755  16.8568  10.5845   C.2       1 RES1   0.0000
  1573 C       27.7206  18.7047  11.6813   C.2       1 RES1   0.0000
  1574 C       27.0820  15.5383  10.0910   C.3       1 RES1   0.0000
  1575 C       28.6723  18.7047  10.7296   C.2       1 RES1   0.0000
  1576 C       25.6207  19.0800  14.9020   C.2       1 RES1   0.0000
  1577 C       23.7728  19.2251  13.8052   C.2       1 RES1   0.0000
  1578 C       26.9392  18.5865  15.3955   C.3       1 RES1   0.0000
  1579 C       31.8930  19.0800   8.6297   C.2       1 RES1   0.0000
  1580 C       30.7962  19.2251   6.7818   C.2       1 RES1   0.0000
  1581 C       32.3865  18.5865   9.9482   C.3       1 RES1   0.0000
  1582 C       31.7479  20.1768   6.7818   C.2       1 RES1   0.0000
  1583 C       23.7728  20.1768  14.7569   C.2       1 RES1   0.0000
  1584 N       27.0203  17.5293  11.6011   N.2       1 RES1   0.0000
  1585 N       28.5921  17.5293  10.0293   N.2       1 RES1   0.0000
  1586 N       24.9482  18.5248  13.8854   N.2       1 RES1   0.0000
  1587 N       30.8764  18.5248   7.9572   N.2       1 RES1   0.0000
  1588 N       32.4482  20.0966   7.9572   N.2       1 RES1   0.0000
  1589 N       24.9482  20.0966  15.4572   N.2       1 RES1   0.0000
  1590 H       19.3884  27.5645  12.2913   H         1 RES1   0.0000
  1591 H       19.3884  29.2823  10.5735   H         1 RES1   0.0000
  1592 H       15.6351  26.7489   9.1972   H         1 RES1   0.0000
  1593 H       14.9045  27.8041  10.0961   H         1 RES1   0.0000
  1594 H       15.2256  26.3785  10.6636   H         1 RES1   0.0000
  1595 H       19.0690  23.0891  13.1952   H         1 RES1   0.0000
  1596 H       20.7868  31.9040   6.0981   H         1 RES1   0.0000
  1597 H       19.0690  30.1862   6.0981   H         1 RES1   0.0000
  1598 H       17.6927  32.7196   9.8514   H         1 RES1   0.0000
  1599 H       18.5916  31.6644  10.5820   H         1 RES1   0.0000
  1600 H       19.1591  33.0900  10.2609   H         1 RES1   0.0000
  1601 H       20.7868  23.0891  14.9130   H         1 RES1   0.0000
  1602 H       18.2534  26.8424  16.2893   H         1 RES1   0.0000
  1603 H       19.3086  27.5730  15.3904   H         1 RES1   0.0000
  1604 H       17.8830  27.2519  14.8229   H         1 RES1   0.0000
  1605 C       16.8568  27.5755  10.5845   C.2       1 RES1   0.0000
  1606 C       18.7047  27.7206  11.6813   C.2       1 RES1   0.0000
  1607 C       15.5383  27.0820  10.0910   C.3       1 RES1   0.0000
  1608 C       18.7047  28.6723  10.7296   C.2       1 RES1   0.0000
  1609 C       19.0800  25.6207  14.9020   C.2       1 RES1   0.0000
  1610 C       19.2251  23.7728  13.8052   C.2       1 RES1   0.0000
  1611 C       18.5865  26.9392  15.3955   C.3       1 RES1   0.0000
  1612 C       19.0800  31.8930   8.6297   C.2       1 RES1   0.0000
  1613 C       20.1768  31.7479   6.7818   C.2       1 RES1   0.0000
  1614 C       18.5865  32.3865   9.9482   C.3       1 RES1   0.0000
  1615 C       19.2251  30.7962   6.7818   C.2       1 RES1   0.0000
  1616 C       20.1768  23.7728  14.7569   C.2       1 RES1   0.0000
  1617 N       17.5293  27.0203  11.6011   N.2       1 RES1   0.0000
  1618 N       17.5293  28.5921  10.0293   N.2       1 RES1   0.0000
  1619 N       18.5248  24.9482  13.8854   N.2       1 RES1   0.0000
  1620 N       20.0966  32.4482   7.9572   N.2       1 RES1   0.0000
  1621 N       18.5248  30.8764   7.9572   N.2       1 RES1   0.0000
  1622 N       20.0966  24.9482  15.4572   N.2       1 RES1   0.0000
  1623 H       10.5735  29.2823  19.3884   H         1 RES1   0.0000
  1624 H        9.1972  26.7489  15.6351   H         1 RES1   0.0000
  1625 H       10.0961  27.8041  14.9045   H         1 RES1   0.0000
  1626 H       10.6636  26.3785  15.2256   H         1 RES1   0.0000
  1627 H       12.2913  27.5645  19.3884   H         1 RES1   0.0000
  1628 H       14.9130  23.0891  20.7868   H         1 RES1   0.0000
  1629 H       16.2893  26.8424  18.2534   H         1 RES1   0.0000
  1630 H       15.3904  27.5730  19.3086   H         1 RES1   0.0000
  1631 H       14.8229  27.2519  17.8830   H         1 RES1   0.0000
  1632 H        6.0981  31.9040  20.7868   H         1 RES1   0.0000
  1633 H        6.0981  30.1862  19.0690   H         1 RES1   0.0000
  1634 H        9.8514  32.7196  17.6927   H         1 RES1   0.0000
  1635 H       10.5820  31.6644  18.5916   H         1 RES1   0.0000
  1636 H       10.2609  33.0900  19.1591   H         1 RES1   0.0000
  1637 H       13.1952  23.0891  19.0690   H         1 RES1   0.0000
  1638 C       10.5845  27.5755  16.8568   C.2       1 RES1   0.0000
  1639 C       10.7296  28.6723  18.7047   C.2       1 RES1   0.0000
  1640 C       10.0910  27.0820  15.5383   C.3       1 RES1   0.0000
  1641 C       11.6813  27.7206  18.7047   C.2       1 RES1   0.0000
  1642 C       14.9020  25.6207  19.0800   C.2       1 RES1   0.0000
  1643 C       14.7569  23.7728  20.1768   C.2       1 RES1   0.0000
  1644 C       15.3955  26.9392  18.5865   C.3       1 RES1   0.0000
  1645 C        8.6297  31.8930  19.0800   C.2       1 RES1   0.0000
  1646 C        6.7818  31.7479  20.1768   C.2       1 RES1   0.0000
  1647 C        9.9482  32.3865  18.5865   C.3       1 RES1   0.0000
  1648 C        6.7818  30.7962  19.2251   C.2       1 RES1   0.0000
  1649 C       13.8052  23.7728  19.2251   C.2       1 RES1   0.0000
  1650 N       10.0293  28.5921  17.5293   N.2       1 RES1   0.0000
  1651 N       11.6011  27.0203  17.5293   N.2       1 RES1   0.0000
  1652 N       15.4572  24.9482  20.0966   N.2       1 RES1   0.0000
  1653 N        7.9572  30.8764  18.5248   N.2       1 RES1   0.0000
  1654 N       13.8854  24.9482  18.5248   N.2       1 RES1   0.0000
  1655 H       23.4085  14.5936  29.2823   H         1 RES1   0.0000
  1656 H       21.6907  14.5936  27.5645   H         1 RES1   0.0000
  1657 H       24.2241  18.3469  26.1882   H         1 RES1   0.0000
  1658 H       23.1689  19.0775  27.0871   H         1 RES1   0.0000
  1659 H       24.5945  18.7564  27.6546   H         1 RES1   0.0000
  1660 C       23.3975  17.1252  27.5755   C.2       1 RES1   0.0000
  1661 C       23.2524  15.2773  28.6723   C.2       1 RES1   0.0000
  1662 C       23.8910  18.4437  27.0820   C.3       1 RES1   0.0000
  1663 C       22.3007  15.2773  27.7206   C.2       1 RES1   0.0000
  1664 N       23.9527  16.4527  28.5921   N.2       1 RES1   0.0000
  1665 N       22.3809  16.4527  27.0203   N.2       1 RES1   0.0000
  1666 H       14.5936  27.5645  21.6907   H         1 RES1   0.0000
  1667 H       14.5936  29.2823  23.4085   H         1 RES1   0.0000
  1668 H       18.3469  26.7489  24.7848   H         1 RES1   0.0000
  1669 H       19.0775  27.8041  23.8859   H         1 RES1   0.0000
  1670 H       18.7564  26.3785  23.3184   H         1 RES1   0.0000
  1671 C       17.1252  27.5755  23.3975   C.2       1 RES1   0.0000
  1672 C       15.2773  27.7206  22.3007   C.2       1 RES1   0.0000
  1673 C       18.4437  27.0820  23.8910   C.3       1 RES1   0.0000
  1674 C       15.2773  28.6723  23.2524   C.2       1 RES1   0.0000
  1675 N       16.4527  27.0203  22.3809   N.2       1 RES1   0.0000
  1676 N       16.4527  28.5921  23.9527   N.2       1 RES1   0.0000
  1677 H       27.5645  14.5936  21.6907   H         1 RES1   0.0000
  1678 H       26.1882  18.3469  24.2241   H         1 RES1   0.0000
  1679 H       27.0871  19.0775  23.1689   H         1 RES1   0.0000
  1680 H       27.6546  18.7564  24.5945   H         1 RES1   0.0000
  1681 H       29.2823  14.5936  23.4085   H         1 RES1   0.0000
  1682 C       27.5755  17.1252  23.3975   C.2       1 RES1   0.0000
  1683 C       27.7206  15.2773  22.3007   C.2       1 RES1   0.0000
  1684 C       27.0820  18.4437  23.8910   C.3       1 RES1   0.0000
  1685 C       28.6723  15.2773  23.2524   C.2       1 RES1   0.0000
  1686 N       27.0203  16.4527  22.3809   N.2       1 RES1   0.0000
  1687 N       28.5921  16.4527  23.9527   N.2       1 RES1   0.0000
  1688 H       14.5936  23.4085  29.2823   H         1 RES1   0.0000
  1689 H       18.3469  24.7848  26.7489   H         1 RES1   0.0000
  1690 H       19.0775  23.8859  27.8041   H         1 RES1   0.0000
  1691 H       18.7564  23.3184  26.3785   H         1 RES1   0.0000
  1692 H       14.5936  21.6907  27.5645   H         1 RES1   0.0000
  1693 C       17.1252  23.3975  27.5755   C.2       1 RES1   0.0000
  1694 C       15.2773  23.2524  28.6723   C.2       1 RES1   0.0000
  1695 C       18.4437  23.8910  27.0820   C.3       1 RES1   0.0000
  1696 C       15.2773  22.3007  27.7206   C.2       1 RES1   0.0000
  1697 N       16.4527  23.9527  28.5921   N.2       1 RES1   0.0000
  1698 N       16.4527  22.3809  27.0203   N.2       1 RES1   0.0000
  1699 H       29.2823  23.4085  14.5936   H         1 RES1   0.0000
  1700 H       27.5645  21.6907  14.5936   H         1 RES1   0.0000
  1701 H       26.1882  24.2241  18.3469   H         1 RES1   0.0000
  1702 H       27.0871  23.1689  19.0775   H         1 RES1   0.0000
  1703 H       27.6546  24.5945  18.7564   H         1 RES1   0.0000
  1704 C       27.5755  23.3975  17.1252   C.2       1 RES1   0.0000
  1705 C       28.6723  23.2524  15.2773   C.2       1 RES1   0.0000
  1706 C       27.0820  23.8910  18.4437   C.3       1 RES1   0.0000
  1707 C       27.7206  22.3007  15.2773   C.2       1 RES1   0.0000
  1708 N       28.5921  23.9527  16.4527   N.2       1 RES1   0.0000
  1709 N       27.0203  22.3809  16.4527   N.2       1 RES1   0.0000
  1710 H       21.6907  27.5645  14.5936   H         1 RES1   0.0000
  1711 H       23.4085  29.2823  14.5936   H         1 RES1   0.0000
  1712 H       24.7848  26.7489  18.3469   H         1 RES1   0.0000
  1713 H       23.8859  27.8041  19.0775   H         1 RES1   0.0000
  1714 H       23.3184  26.3785  18.7564   H         1 RES1   0.0000
  1715 C       23.3975  27.5755  17.1252   C.2       1 RES1   0.0000
  1716 C       22.3007  27.7206  15.2773   C.2       1 RES1   0.0000
  1717 C       23.8910  27.0820  18.4437   C.3       1 RES1   0.0000
  1718 C       23.2524  28.6723  15.2773   C.2       1 RES1   0.0000
  1719 N       22.3809  27.0203  16.4527   N.2       1 RES1   0.0000
  1720 N       23.9527  28.5921  16.4527   N.2       1 RES1   0.0000
  1721 H       27.8839  14.9130  13.1952   H         1 RES1   0.0000
  1722 H       24.1306  16.2893  15.7286   H         1 RES1   0.0000
  1723 H       23.4000  15.3904  14.6734   H         1 RES1   0.0000
  1724 H       23.7211  14.8229  16.0990   H         1 RES1   0.0000
  1725 H       27.8839  13.1952  14.9130   H         1 RES1   0.0000
  1726 C       25.3523  14.9020  14.9020   C.2       1 RES1   0.0000
  1727 C       27.2002  14.7569  13.8052   C.2       1 RES1   0.0000
  1728 C       24.0338  15.3955  15.3955   C.3       1 RES1   0.0000
  1729 C       27.2002  13.8052  14.7569   C.2       1 RES1   0.0000
  1730 N       26.0248  15.4572  13.8854   N.2       1 RES1   0.0000
  1731 N       26.0248  13.8854  15.4572   N.2       1 RES1   0.0000
  1732 H       31.9040  13.1952  10.8929   H         1 RES1   0.0000
  1733 H       33.2803  15.7286   7.1396   H         1 RES1   0.0000
  1734 H       32.3814  14.6734   6.4090   H         1 RES1   0.0000
  1735 H       31.8139  16.0990   6.7301   H         1 RES1   0.0000
  1736 H       30.1862  14.9130  10.8929   H         1 RES1   0.0000
  1737 C       31.8930  14.9020   8.3613   C.2       1 RES1   0.0000
  1738 C       31.7479  13.8052  10.2092   C.2       1 RES1   0.0000
  1739 C       32.3865  15.3955   7.0428   C.3       1 RES1   0.0000
  1740 C       30.7962  14.7569  10.2092   C.2       1 RES1   0.0000
  1741 N       32.4482  13.8854   9.0338   N.2       1 RES1   0.0000
  1742 N       30.8764  15.4572   9.0338   N.2       1 RES1   0.0000
  1743 H       14.9130  27.8839  13.1952   H         1 RES1   0.0000
  1744 H       16.2893  24.1306  15.7286   H         1 RES1   0.0000
  1745 H       15.3904  23.4000  14.6734   H         1 RES1   0.0000
  1746 H       14.8229  23.7211  16.0990   H         1 RES1   0.0000
  1747 H       13.1952  27.8839  14.9130   H         1 RES1   0.0000
  1748 C       14.9020  25.3523  14.9020   C.2       1 RES1   0.0000
  1749 C       14.7569  27.2002  13.8052   C.2       1 RES1   0.0000
  1750 C       15.3955  24.0338  15.3955   C.3       1 RES1   0.0000
  1751 C       13.8052  27.2002  14.7569   C.2       1 RES1   0.0000
  1752 N       15.4572  26.0248  13.8854   N.2       1 RES1   0.0000
  1753 N       13.8854  26.0248  15.4572   N.2       1 RES1   0.0000
  1754 Zn      33.9820  21.2387   8.4955   Zn        1 RES1   0.0000
  1755 Zn      21.2388  33.9820   8.4955   Zn        1 RES1   0.0000
  1756 Zn      25.4865  16.9910  29.7342   Zn        1 RES1   0.0000
  1757 Zn      29.7342  16.9910  25.4865   Zn        1 RES1   0.0000
  1758 Zn      16.9910  25.4865  29.7342   Zn        1 RES1   0.0000
  1759 Zn      33.9820  12.7432   8.4955   Zn        1 RES1   0.0000
  1760 Zn      29.7342  25.4865  16.9910   Zn        1 RES1   0.0000
  1761 Zn      25.4865  29.7342  16.9910   Zn        1 RES1   0.0000
  1762 N       24.9482  15.4572  20.0966   N.2       1 RES1   0.0000
  1763 Zn      25.4865  21.2388  33.9820   Zn        1 RES1   0.0000
  1764 Zn      21.2388  25.4865  33.9820   Zn        1 RES1   0.0000
  1765 H       24.7848  24.2241  32.6261   H         1 RES1   0.0000
  1766 H       23.8859  23.1689  31.8955   H         1 RES1   0.0000
  1767 H       23.3184  24.5945  32.2166   H         1 RES1   0.0000
  1768 C       23.3975  23.3975  33.8478   C.3       1 RES1   0.0000
  1769 C       23.8910  23.8910  32.5293   C.3       1 RES1   0.0000
  1770 H       27.5645  19.3884  29.2823   H         1 RES1   0.0000
  1771 H       26.1882  15.6351  26.7489   H         1 RES1   0.0000
  1772 H       27.0871  14.9045  27.8041   H         1 RES1   0.0000
  1773 H       27.6546  15.2256  26.3785   H         1 RES1   0.0000
  1774 H       29.2823  19.3884  27.5645   H         1 RES1   0.0000
  1775 H       23.0891  19.0690  30.1862   H         1 RES1   0.0000
  1776 H       30.1862  19.0690  23.0891   H         1 RES1   0.0000
  1777 H       31.9040  20.7868  23.0891   H         1 RES1   0.0000
  1778 H       33.2803  18.2534  26.8424   H         1 RES1   0.0000
  1779 H       32.3814  19.3086  27.5730   H         1 RES1   0.0000
  1780 H       31.8139  17.8830  27.2519   H         1 RES1   0.0000
  1781 H       23.0891  20.7868  31.9040   H         1 RES1   0.0000
  1782 H       26.8424  18.2534  33.2803   H         1 RES1   0.0000
  1783 H       27.5730  19.3086  32.3814   H         1 RES1   0.0000
  1784 H       27.2519  17.8830  31.8139   H         1 RES1   0.0000
  1785 C       27.5755  16.8568  27.5755   C.2       1 RES1   0.0000
  1786 C       27.7206  18.7047  28.6723   C.2       1 RES1   0.0000
  1787 C       27.0820  15.5383  27.0820   C.3       1 RES1   0.0000
  1788 C       28.6723  18.7047  27.7206   C.2       1 RES1   0.0000
  1789 C       25.6207  19.0800  31.8930   C.2       1 RES1   0.0000
  1790 C       23.7728  19.2251  30.7962   C.2       1 RES1   0.0000
  1791 C       26.9392  18.5865  32.3865   C.3       1 RES1   0.0000
  1792 C       31.8930  19.0800  25.6207   C.2       1 RES1   0.0000
  1793 C       30.7962  19.2251  23.7728   C.2       1 RES1   0.0000
  1794 C       32.3865  18.5865  26.9392   C.3       1 RES1   0.0000
  1795 C       31.7479  20.1768  23.7728   C.2       1 RES1   0.0000
  1796 C       23.7728  20.1768  31.7479   C.2       1 RES1   0.0000
  1797 N       27.0203  17.5293  28.5921   N.2       1 RES1   0.0000
  1798 N       28.5921  17.5293  27.0203   N.2       1 RES1   0.0000
  1799 N       24.9482  18.5248  30.8764   N.2       1 RES1   0.0000
  1800 N       30.8764  18.5248  24.9482   N.2       1 RES1   0.0000
  1801 N       32.4482  20.0966  24.9482   N.2       1 RES1   0.0000
  1802 N       24.9482  20.0966  32.4482   N.2       1 RES1   0.0000
  1803 H       19.3884  27.5645  29.2823   H         1 RES1   0.0000
  1804 H       19.3884  29.2823  27.5645   H         1 RES1   0.0000
  1805 H       15.6351  26.7489  26.1882   H         1 RES1   0.0000
  1806 H       14.9045  27.8041  27.0871   H         1 RES1   0.0000
  1807 H       15.2256  26.3785  27.6546   H         1 RES1   0.0000
  1808 H       19.0690  23.0891  30.1862   H         1 RES1   0.0000
  1809 H       20.7868  31.9040  23.0891   H         1 RES1   0.0000
  1810 H       19.0690  30.1862  23.0891   H         1 RES1   0.0000
  1811 H       17.6927  32.7196  26.8424   H         1 RES1   0.0000
  1812 H       18.5916  31.6644  27.5730   H         1 RES1   0.0000
  1813 H       19.1591  33.0900  27.2519   H         1 RES1   0.0000
  1814 H       20.7868  23.0891  31.9040   H         1 RES1   0.0000
  1815 H       18.2534  26.8424  33.2803   H         1 RES1   0.0000
  1816 H       19.3086  27.5730  32.3814   H         1 RES1   0.0000
  1817 H       17.8830  27.2519  31.8139   H         1 RES1   0.0000
  1818 C       16.8568  27.5755  27.5755   C.2       1 RES1   0.0000
  1819 C       18.7047  27.7206  28.6723   C.2       1 RES1   0.0000
  1820 C       15.5383  27.0820  27.0820   C.3       1 RES1   0.0000
  1821 C       18.7047  28.6723  27.7206   C.2       1 RES1   0.0000
  1822 C       19.0800  25.6207  31.8930   C.2       1 RES1   0.0000
  1823 C       19.2251  23.7728  30.7962   C.2       1 RES1   0.0000
  1824 C       18.5865  26.9392  32.3865   C.3       1 RES1   0.0000
  1825 C       19.0800  31.8930  25.6207   C.2       1 RES1   0.0000
  1826 C       20.1768  31.7479  23.7728   C.2       1 RES1   0.0000
  1827 C       18.5865  32.3865  26.9392   C.3       1 RES1   0.0000
  1828 C       19.2251  30.7962  23.7728   C.2       1 RES1   0.0000
  1829 C       20.1768  23.7728  31.7479   C.2       1 RES1   0.0000
  1830 N       17.5293  27.0203  28.5921   N.2       1 RES1   0.0000
  1831 N       17.5293  28.5921  27.0203   N.2       1 RES1   0.0000
  1832 N       18.5248  24.9482  30.8764   N.2       1 RES1   0.0000
  1833 N       20.0966  32.4482  24.9482   N.2       1 RES1   0.0000
  1834 N       18.5248  30.8764  24.9482   N.2       1 RES1   0.0000
  1835 N       20.0966  24.9482  32.4482   N.2       1 RES1   0.0000
  1836 H        9.1972  26.7489  32.6261   H         1 RES1   0.0000
  1837 H       10.0961  27.8041  31.8955   H         1 RES1   0.0000
  1838 H       10.6636  26.3785  32.2166   H         1 RES1   0.0000
  1839 C       10.5845  27.5755  33.8478   C.3       1 RES1   0.0000
  1840 C       10.0910  27.0820  32.5293   C.3       1 RES1   0.0000
  1841 H       29.2823  23.4085  31.5846   H         1 RES1   0.0000
  1842 H       27.5645  21.6907  31.5846   H         1 RES1   0.0000
  1843 C       28.6723  23.2524  32.2683   C.2       1 RES1   0.0000
  1844 C       27.7206  22.3007  32.2683   C.2       1 RES1   0.0000
  1845 N       28.5921  23.9527  33.4437   N.3       1 RES1   0.0000
  1846 N       27.0203  22.3809  33.4437   N.3       1 RES1   0.0000
  1847 H       21.6907  27.5645  31.5846   H         1 RES1   0.0000
  1848 H       23.4085  29.2823  31.5846   H         1 RES1   0.0000
  1849 C       22.3007  27.7206  32.2683   C.2       1 RES1   0.0000
  1850 C       23.2524  28.6723  32.2683   C.2       1 RES1   0.0000
  1851 N       22.3809  27.0203  33.4437   N.3       1 RES1   0.0000
  1852 N       23.9527  28.5921  33.4437   N.3       1 RES1   0.0000
  1853 H       27.8839  14.9130  30.1862   H         1 RES1   0.0000
  1854 H       24.1306  16.2893  32.7196   H         1 RES1   0.0000
  1855 H       23.4000  15.3904  31.6644   H         1 RES1   0.0000
  1856 H       23.7211  14.8229  33.0900   H         1 RES1   0.0000
  1857 H       27.8839  13.1952  31.9040   H         1 RES1   0.0000
  1858 C       25.3523  14.9020  31.8930   C.2       1 RES1   0.0000
  1859 C       27.2002  14.7569  30.7962   C.2       1 RES1   0.0000
  1860 C       24.0338  15.3955  32.3865   C.3       1 RES1   0.0000
  1861 C       27.2002  13.8052  31.7479   C.2       1 RES1   0.0000
  1862 N       26.0248  15.4572  30.8764   N.2       1 RES1   0.0000
  1863 N       26.0248  13.8854  32.4482   N.2       1 RES1   0.0000
  1864 H       31.9040  13.1952  27.8839   H         1 RES1   0.0000
  1865 H       33.2803  15.7286  24.1306   H         1 RES1   0.0000
  1866 H       32.3814  14.6734  23.4000   H         1 RES1   0.0000
  1867 H       31.8139  16.0990  23.7211   H         1 RES1   0.0000
  1868 H       30.1862  14.9130  27.8839   H         1 RES1   0.0000
  1869 C       31.8930  14.9020  25.3523   C.2       1 RES1   0.0000
  1870 C       31.7479  13.8052  27.2002   C.2       1 RES1   0.0000
  1871 C       32.3865  15.3955  24.0338   C.3       1 RES1   0.0000
  1872 C       30.7962  14.7569  27.2002   C.2       1 RES1   0.0000
  1873 N       32.4482  13.8854  26.0248   N.2       1 RES1   0.0000
  1874 N       30.8764  15.4572  26.0248   N.2       1 RES1   0.0000
  1875 H       14.9130  27.8839  30.1862   H         1 RES1   0.0000
  1876 H       16.2893  24.1306  32.7196   H         1 RES1   0.0000
  1877 H       15.3904  23.4000  31.6644   H         1 RES1   0.0000
  1878 H       14.8229  23.7211  33.0900   H         1 RES1   0.0000
  1879 H       13.1952  27.8839  31.9040   H         1 RES1   0.0000
  1880 C       14.9020  25.3523  31.8930   C.2       1 RES1   0.0000
  1881 C       14.7569  27.2002  30.7962   C.2       1 RES1   0.0000
  1882 C       15.3955  24.0338  32.3865   C.3       1 RES1   0.0000
  1883 C       13.8052  27.2002  31.7479   C.2       1 RES1   0.0000
  1884 N       15.4572  26.0248  30.8764   N.2       1 RES1   0.0000
  1885 N       13.8854  26.0248  32.4482   N.2       1 RES1   0.0000
  1886 Zn      33.9820  21.2387  25.4865   Zn        1 RES1   0.0000
  1887 Zn      21.2388  33.9820  25.4865   Zn        1 RES1   0.0000
  1888 Zn      33.9820  12.7433  25.4865   Zn        1 RES1   0.0000
  1889 Zn      29.7343  25.4865  33.9820   Zn        1 RES1   0.0000
  1890 Zn      25.4865  29.7343  33.9820   Zn        1 RES1   0.0000
  1891 Zn      25.4865  33.9820   4.2477   Zn        1 RES1   0.0000
  1892 H       24.2241  32.6261   7.7938   H         1 RES1   0.0000
  1893 H       23.1689  31.8955   6.8949   H         1 RES1   0.0000
  1894 H       24.5945  32.2166   6.3274   H         1 RES1   0.0000
  1895 C       23.3975  33.8478   6.4065   C.3       1 RES1   0.0000
  1896 C       23.8910  32.5293   6.9000   C.3       1 RES1   0.0000
  1897 H       23.4085  31.5846  12.2913   H         1 RES1   0.0000
  1898 H       21.6907  31.5846  10.5735   H         1 RES1   0.0000
  1899 C       23.2524  32.2683  11.6813   C.2       1 RES1   0.0000
  1900 C       22.3007  32.2683  10.7296   C.2       1 RES1   0.0000
  1901 N       23.9527  33.4437  11.6011   N.3       1 RES1   0.0000
  1902 N       22.3809  33.4437  10.0293   N.3       1 RES1   0.0000
  1903 H       27.5645  31.5846   4.6997   H         1 RES1   0.0000
  1904 H       29.2823  31.5846   6.4175   H         1 RES1   0.0000
  1905 C       27.7206  32.2683   5.3097   C.2       1 RES1   0.0000
  1906 C       28.6723  32.2683   6.2614   C.2       1 RES1   0.0000
  1907 N       27.0203  33.4437   5.3899   N.3       1 RES1   0.0000
  1908 N       28.5921  33.4437   6.9617   N.3       1 RES1   0.0000
  1909 Zn      25.4865  33.9820  12.7432   Zn        1 RES1   0.0000
  1910 Zn      29.7343  33.9820   8.4955   Zn        1 RES1   0.0000
  1911 N       24.9482  32.4482   3.1056   N.2       1 RES1   0.0000
  1912 Zn      25.4865  33.9820  21.2387   Zn        1 RES1   0.0000
  1913 H       24.2241  32.6261  24.7848   H         1 RES1   0.0000
  1914 H       23.1689  31.8955  23.8859   H         1 RES1   0.0000
  1915 H       24.5945  32.2166  23.3184   H         1 RES1   0.0000
  1916 C       23.3975  33.8478  23.3975   C.3       1 RES1   0.0000
  1917 C       23.8910  32.5293  23.8910   C.3       1 RES1   0.0000
  1918 H       26.1882  32.6261   9.7579   H         1 RES1   0.0000
  1919 H       27.0871  31.8955  10.8131   H         1 RES1   0.0000
  1920 H       27.6546  32.2166   9.3875   H         1 RES1   0.0000
  1921 C       27.5755  33.8478  10.5845   C.3       1 RES1   0.0000
  1922 C       27.0820  32.5293  10.0910   C.3       1 RES1   0.0000
  1923 H       23.4085  31.5846  29.2823   H         1 RES1   0.0000
  1924 H       21.6907  31.5846  27.5645   H         1 RES1   0.0000
  1925 C       23.2524  32.2683  28.6723   C.2       1 RES1   0.0000
  1926 C       22.3007  32.2683  27.7206   C.2       1 RES1   0.0000
  1927 N       23.9527  33.4437  28.5921   N.3       1 RES1   0.0000
  1928 N       22.3809  33.4437  27.0203   N.3       1 RES1   0.0000
  1929 H       27.5645  31.5846  21.6907   H         1 RES1   0.0000
  1930 H       29.2823  31.5846  23.4085   H         1 RES1   0.0000
  1931 C       27.7206  32.2683  22.3007   C.2       1 RES1   0.0000
  1932 C       28.6723  32.2683  23.2524   C.2       1 RES1   0.0000
  1933 N       27.0203  33.4437  22.3809   N.3       1 RES1   0.0000
  1934 N       28.5921  33.4437  23.9527   N.3       1 RES1   0.0000
  1935 H       27.8839  31.9040  13.1952   H         1 RES1   0.0000
  1936 H       24.1306  33.2803  15.7286   H         1 RES1   0.0000
  1937 H       23.4000  32.3814  14.6734   H         1 RES1   0.0000
  1938 H       23.7211  31.8139  16.0990   H         1 RES1   0.0000
  1939 H       27.8839  30.1862  14.9130   H         1 RES1   0.0000
  1940 C       25.3523  31.8930  14.9020   C.2       1 RES1   0.0000
  1941 C       27.2002  31.7479  13.8052   C.2       1 RES1   0.0000
  1942 C       24.0338  32.3865  15.3955   C.3       1 RES1   0.0000
  1943 C       27.2002  30.7962  14.7569   C.2       1 RES1   0.0000
  1944 N       26.0248  32.4482  13.8854   N.2       1 RES1   0.0000
  1945 N       26.0248  30.8764  15.4572   N.2       1 RES1   0.0000
  1946 H       31.9040  30.1862  10.8929   H         1 RES1   0.0000
  1947 H       33.2803  32.7196   7.1396   H         1 RES1   0.0000
  1948 H       32.3814  31.6644   6.4090   H         1 RES1   0.0000
  1949 H       31.8139  33.0900   6.7301   H         1 RES1   0.0000
  1950 H       30.1862  31.9040  10.8929   H         1 RES1   0.0000
  1951 C       31.8930  31.8930   8.3613   C.2       1 RES1   0.0000
  1952 C       31.7479  30.7962  10.2092   C.2       1 RES1   0.0000
  1953 C       32.3865  32.3865   7.0428   C.3       1 RES1   0.0000
  1954 C       30.7962  31.7479  10.2092   C.2       1 RES1   0.0000
  1955 N       32.4482  30.8764   9.0338   N.2       1 RES1   0.0000
  1956 N       30.8764  32.4482   9.0338   N.2       1 RES1   0.0000
  1957 Zn      25.4865  33.9820  29.7342   Zn        1 RES1   0.0000
  1958 Zn      29.7343  33.9820  25.4865   Zn        1 RES1   0.0000
  1959 Zn      33.9820  29.7342   8.4955   Zn        1 RES1   0.0000
  1960 N       24.9482  32.4482  20.0966   N.2       1 RES1   0.0000
  1961 H       26.1882  32.6261  26.7489   H         1 RES1   0.0000
  1962 H       27.0871  31.8955  27.8041   H         1 RES1   0.0000
  1963 H       27.6546  32.2166  26.3785   H         1 RES1   0.0000
  1964 C       27.5755  33.8478  27.5755   C.3       1 RES1   0.0000
  1965 C       27.0820  32.5293  27.0820   C.3       1 RES1   0.0000
  1966 H       27.8839  31.9040  30.1862   H         1 RES1   0.0000
  1967 H       24.1306  33.2803  32.7196   H         1 RES1   0.0000
  1968 H       23.4000  32.3814  31.6644   H         1 RES1   0.0000
  1969 H       23.7211  31.8139  33.0900   H         1 RES1   0.0000
  1970 H       27.8839  30.1862  31.9040   H         1 RES1   0.0000
  1971 C       25.3523  31.8930  31.8930   C.2       1 RES1   0.0000
  1972 C       27.2002  31.7479  30.7962   C.2       1 RES1   0.0000
  1973 C       24.0338  32.3865  32.3865   C.3       1 RES1   0.0000
  1974 C       27.2002  30.7962  31.7479   C.2       1 RES1   0.0000
  1975 N       26.0248  32.4482  30.8764   N.2       1 RES1   0.0000
  1976 N       26.0248  30.8764  32.4482   N.2       1 RES1   0.0000
  1977 H       31.9040  30.1862  27.8839   H         1 RES1   0.0000
  1978 H       33.2803  32.7196  24.1306   H         1 RES1   0.0000
  1979 H       32.3814  31.6644  23.4000   H         1 RES1   0.0000
  1980 H       31.8139  33.0900  23.7211   H         1 RES1   0.0000
  1981 H       30.1862  31.9040  27.8839   H         1 RES1   0.0000
  1982 C       31.8930  31.8930  25.3523   C.2       1 RES1   0.0000
  1983 C       31.7479  30.7962  27.2002   C.2       1 RES1   0.0000
  1984 C       32.3865  32.3865  24.0338   C.3       1 RES1   0.0000
  1985 C       30.7962  31.7479  27.2002   C.2       1 RES1   0.0000
  1986 N       32.4482  30.8764  26.0248   N.2       1 RES1   0.0000
  1987 N       30.8764  32.4482  26.0248   N.2       1 RES1   0.0000
  1988 Zn      33.9820  29.7342  25.4865   Zn        1 RES1   0.0000
  1989 Zn      33.9820   8.4955   4.2477   Zn        1 RES1   0.0000
  1990 H       32.6261   7.7938   7.2331   H         1 RES1   0.0000
  1991 H       31.8955   6.8949   6.1779   H         1 RES1   0.0000
  1992 H       32.2166   6.3274   7.6035   H         1 RES1   0.0000
  1993 C       33.8478   6.4065   6.4065   C.3       1 RES1   0.0000
  1994 C       32.5293   6.9000   6.9000   C.3       1 RES1   0.0000
  1995 H       27.5645  12.2913   2.3974   H         1 RES1   0.0000
  1996 H       29.2823  10.5735   2.3974   H         1 RES1   0.0000
  1997 H       31.9040   6.0981   3.7958   H         1 RES1   0.0000
  1998 H       33.2803   9.8514   1.2624   H         1 RES1   0.0000
  1999 H       32.3814  10.5820   2.3176   H         1 RES1   0.0000
  2000 H       31.8139  10.2609   0.8920   H         1 RES1   0.0000
  2001 H       23.0891  14.9130   3.7958   H         1 RES1   0.0000
  2002 H       23.0891  13.1952   2.0780   H         1 RES1   0.0000
  2003 H       26.8424  15.7286   0.7017   H         1 RES1   0.0000
  2004 H       27.5730  14.6734   1.6006   H         1 RES1   0.0000
  2005 H       27.2519  16.0990   2.1681   H         1 RES1   0.0000
  2006 H       30.1862   6.0981   2.0780   H         1 RES1   0.0000
  2007 C       27.7206  11.6813   1.7137   C.2       1 RES1   0.0000
  2008 C       28.6723  10.7296   1.7137   C.2       1 RES1   0.0000
  2009 C       31.8930   8.6297   2.0890   C.2       1 RES1   0.0000
  2010 C       31.7479   6.7818   3.1858   C.2       1 RES1   0.0000
  2011 C       32.3865   9.9482   1.5955   C.3       1 RES1   0.0000
  2012 C       25.6207  14.9020   2.0890   C.2       1 RES1   0.0000
  2013 C       23.7728  14.7569   3.1858   C.2       1 RES1   0.0000
  2014 C       26.9392  15.3955   1.5955   C.3       1 RES1   0.0000
  2015 C       23.7728  13.8052   2.2341   C.2       1 RES1   0.0000
  2016 C       30.7962   6.7818   2.2341   C.2       1 RES1   0.0000
  2017 N       27.0203  11.6011   0.5383   N.3       1 RES1   0.0000
  2018 N       28.5921  10.0293   0.5383   N.3       1 RES1   0.0000
  2019 N       32.4482   7.9572   3.1056   N.2       1 RES1   0.0000
  2020 N       24.9482  13.8854   1.5338   N.2       1 RES1   0.0000
  2021 N       30.8764   7.9572   1.5338   N.2       1 RES1   0.0000
  2022 H       31.5846  10.5735   4.6997   H         1 RES1   0.0000
  2023 H       31.5846  12.2913   6.4175   H         1 RES1   0.0000
  2024 C       32.2683  10.7296   5.3097   C.2       1 RES1   0.0000
  2025 C       32.2683  11.6813   6.2614   C.2       1 RES1   0.0000
  2026 N       33.4437  10.0293   5.3899   N.3       1 RES1   0.0000
  2027 N       33.4437  11.6011   6.9617   N.3       1 RES1   0.0000
  2028 H       31.5846   6.4175  12.2913   H         1 RES1   0.0000
  2029 H       31.5846   4.6997  10.5735   H         1 RES1   0.0000
  2030 C       32.2683   6.2614  11.6813   C.2       1 RES1   0.0000
  2031 C       32.2683   5.3097  10.7296   C.2       1 RES1   0.0000
  2032 N       33.4437   6.9617  11.6011   N.3       1 RES1   0.0000
  2033 N       33.4437   5.3899  10.0293   N.3       1 RES1   0.0000
  2034 Zn      33.9820   8.4955  12.7432   Zn        1 RES1   0.0000
  2035 Zn      33.9820   8.4955  21.2387   Zn        1 RES1   0.0000
  2036 H       32.6261   7.7938  24.2241   H         1 RES1   0.0000
  2037 H       31.8955   6.8949  23.1689   H         1 RES1   0.0000
  2038 H       32.2166   6.3274  24.5945   H         1 RES1   0.0000
  2039 C       33.8478   6.4065  23.3975   C.3       1 RES1   0.0000
  2040 C       32.5293   6.9000  23.8910   C.3       1 RES1   0.0000
  2041 H       32.6261   9.7579   9.1972   H         1 RES1   0.0000
  2042 H       31.8955  10.8131  10.0961   H         1 RES1   0.0000
  2043 H       32.2166   9.3875  10.6636   H         1 RES1   0.0000
  2044 C       33.8478  10.5845  10.5845   C.3       1 RES1   0.0000
  2045 C       32.5293  10.0910  10.0910   C.3       1 RES1   0.0000
  2046 H       27.5645  12.2913  19.3884   H         1 RES1   0.0000
  2047 H       26.1882   9.7579  15.6351   H         1 RES1   0.0000
  2048 H       27.0871  10.8131  14.9045   H         1 RES1   0.0000
  2049 H       27.6546   9.3875  15.2256   H         1 RES1   0.0000
  2050 H       29.2823  10.5735  19.3884   H         1 RES1   0.0000
  2051 H       31.9040   6.0981  20.7868   H         1 RES1   0.0000
  2052 H       33.2803   9.8514  18.2534   H         1 RES1   0.0000
  2053 H       32.3814  10.5820  19.3086   H         1 RES1   0.0000
  2054 H       31.8139  10.2609  17.8830   H         1 RES1   0.0000
  2055 H       23.0891  14.9130  20.7868   H         1 RES1   0.0000
  2056 H       23.0891  13.1952  19.0690   H         1 RES1   0.0000
  2057 H       26.8424  15.7286  17.6927   H         1 RES1   0.0000
  2058 H       27.5730  14.6734  18.5916   H         1 RES1   0.0000
  2059 H       27.2519  16.0990  19.1591   H         1 RES1   0.0000
  2060 H       30.1862   6.0981  19.0690   H         1 RES1   0.0000
  2061 C       27.5755  10.5845  16.8568   C.2       1 RES1   0.0000
  2062 C       27.7206  11.6813  18.7047   C.2       1 RES1   0.0000
  2063 C       27.0820  10.0910  15.5383   C.3       1 RES1   0.0000
  2064 C       28.6723  10.7296  18.7047   C.2       1 RES1   0.0000
  2065 C       31.8930   8.6297  19.0800   C.2       1 RES1   0.0000
  2066 C       31.7479   6.7818  20.1768   C.2       1 RES1   0.0000
  2067 C       32.3865   9.9482  18.5865   C.3       1 RES1   0.0000
  2068 C       25.6207  14.9020  19.0800   C.2       1 RES1   0.0000
  2069 C       23.7728  14.7569  20.1768   C.2       1 RES1   0.0000
  2070 C       26.9392  15.3955  18.5865   C.3       1 RES1   0.0000
  2071 C       23.7728  13.8052  19.2251   C.2       1 RES1   0.0000
  2072 C       30.7962   6.7818  19.2251   C.2       1 RES1   0.0000
  2073 N       27.0203  11.6011  17.5293   N.2       1 RES1   0.0000
  2074 N       28.5921  10.0293  17.5293   N.2       1 RES1   0.0000
  2075 N       32.4482   7.9572  20.0966   N.2       1 RES1   0.0000
  2076 N       24.9482  13.8854  18.5248   N.2       1 RES1   0.0000
  2077 N       30.8764   7.9572  18.5248   N.2       1 RES1   0.0000
  2078 H       31.5846  10.5735  21.6907   H         1 RES1   0.0000
  2079 H       31.5846  12.2913  23.4085   H         1 RES1   0.0000
  2080 C       32.2683  10.7296  22.3007   C.2       1 RES1   0.0000
  2081 C       32.2683  11.6813  23.2524   C.2       1 RES1   0.0000
  2082 N       33.4437  10.0293  22.3809   N.3       1 RES1   0.0000
  2083 N       33.4437  11.6011  23.9527   N.3       1 RES1   0.0000
  2084 H       31.5846   6.4175  29.2823   H         1 RES1   0.0000
  2085 H       31.5846   4.6997  27.5645   H         1 RES1   0.0000
  2086 C       32.2683   6.2614  28.6723   C.2       1 RES1   0.0000
  2087 C       32.2683   5.3097  27.7206   C.2       1 RES1   0.0000
  2088 N       33.4437   6.9617  28.5921   N.3       1 RES1   0.0000
  2089 N       33.4437   5.3899  27.0203   N.3       1 RES1   0.0000
  2090 H       31.9040  10.8929  13.1952   H         1 RES1   0.0000
  2091 H       33.2803   7.1396  15.7286   H         1 RES1   0.0000
  2092 H       32.3814   6.4090  14.6734   H         1 RES1   0.0000
  2093 H       31.8139   6.7301  16.0990   H         1 RES1   0.0000
  2094 H       30.1862  10.8929  14.9130   H         1 RES1   0.0000
  2095 C       31.8930   8.3613  14.9020   C.2       1 RES1   0.0000
  2096 C       31.7479  10.2092  13.8052   C.2       1 RES1   0.0000
  2097 C       32.3865   7.0428  15.3955   C.3       1 RES1   0.0000
  2098 C       30.7962  10.2092  14.7569   C.2       1 RES1   0.0000
  2099 N       32.4482   9.0338  13.8854   N.2       1 RES1   0.0000
  2100 N       30.8764   9.0338  15.4572   N.2       1 RES1   0.0000
  2101 Zn      33.9820   8.4955  29.7342   Zn        1 RES1   0.0000
  2102 H       32.6261   9.7579  26.1882   H         1 RES1   0.0000
  2103 H       31.8955  10.8131  27.0871   H         1 RES1   0.0000
  2104 H       32.2166   9.3875  27.6546   H         1 RES1   0.0000
  2105 C       33.8478  10.5845  27.5755   C.3       1 RES1   0.0000
  2106 C       32.5293  10.0910  27.0820   C.3       1 RES1   0.0000
  2107 H       26.1882   9.7579  32.6261   H         1 RES1   0.0000
  2108 H       27.0871  10.8131  31.8955   H         1 RES1   0.0000
  2109 H       27.6546   9.3875  32.2166   H         1 RES1   0.0000
  2110 C       27.5755  10.5845  33.8478   C.3       1 RES1   0.0000
  2111 C       27.0820  10.0910  32.5293   C.3       1 RES1   0.0000
  2112 H       31.9040  10.8929  30.1862   H         1 RES1   0.0000
  2113 H       33.2803   7.1396  32.7196   H         1 RES1   0.0000
  2114 H       32.3814   6.4090  31.6644   H         1 RES1   0.0000
  2115 H       31.8139   6.7301  33.0900   H         1 RES1   0.0000
  2116 H       30.1862  10.8929  31.9040   H         1 RES1   0.0000
  2117 C       31.8930   8.3613  31.8930   C.2       1 RES1   0.0000
  2118 C       31.7479  10.2092  30.7962   C.2       1 RES1   0.0000
  2119 C       32.3865   7.0428  32.3865   C.3       1 RES1   0.0000
  2120 C       30.7962  10.2092  31.7479   C.2       1 RES1   0.0000
  2121 N       32.4482   9.0338  30.8764   N.2       1 RES1   0.0000
  2122 N       30.8764   9.0338  32.4482   N.2       1 RES1   0.0000
  2123 Zn      33.9820  25.4865   4.2477   Zn        1 RES1   0.0000
  2124 H       32.6261  24.7848   7.2331   H         1 RES1   0.0000
  2125 H       31.8955  23.8859   6.1779   H         1 RES1   0.0000
  2126 H       32.2166  23.3184   7.6035   H         1 RES1   0.0000
  2127 C       33.8478  23.3975   6.4065   C.3       1 RES1   0.0000
  2128 C       32.5293  23.8910   6.9000   C.3       1 RES1   0.0000
  2129 H       27.5645  29.2823   2.3974   H         1 RES1   0.0000
  2130 H       29.2823  27.5645   2.3974   H         1 RES1   0.0000
  2131 H       31.9040  23.0891   3.7958   H         1 RES1   0.0000
  2132 H       33.2803  26.8424   1.2624   H         1 RES1   0.0000
  2133 H       32.3814  27.5730   2.3176   H         1 RES1   0.0000
  2134 H       31.8139  27.2519   0.8920   H         1 RES1   0.0000
  2135 H       23.0891  31.9040   3.7958   H         1 RES1   0.0000
  2136 H       23.0891  30.1862   2.0780   H         1 RES1   0.0000
  2137 H       26.8424  32.7196   0.7017   H         1 RES1   0.0000
  2138 H       27.5730  31.6644   1.6006   H         1 RES1   0.0000
  2139 H       27.2519  33.0900   2.1681   H         1 RES1   0.0000
  2140 H       30.1862  23.0891   2.0780   H         1 RES1   0.0000
  2141 C       27.7206  28.6723   1.7137   C.2       1 RES1   0.0000
  2142 C       28.6723  27.7206   1.7137   C.2       1 RES1   0.0000
  2143 C       31.8930  25.6207   2.0890   C.2       1 RES1   0.0000
  2144 C       31.7479  23.7728   3.1858   C.2       1 RES1   0.0000
  2145 C       32.3865  26.9392   1.5955   C.3       1 RES1   0.0000
  2146 C       25.6207  31.8930   2.0890   C.2       1 RES1   0.0000
  2147 C       23.7728  31.7479   3.1858   C.2       1 RES1   0.0000
  2148 C       26.9392  32.3865   1.5955   C.3       1 RES1   0.0000
  2149 C       23.7728  30.7962   2.2341   C.2       1 RES1   0.0000
  2150 C       30.7962  23.7728   2.2341   C.2       1 RES1   0.0000
  2151 N       27.0203  28.5921   0.5383   N.3       1 RES1   0.0000
  2152 N       28.5921  27.0203   0.5383   N.3       1 RES1   0.0000
  2153 N       32.4482  24.9482   3.1056   N.2       1 RES1   0.0000
  2154 N       24.9482  30.8764   1.5338   N.2       1 RES1   0.0000
  2155 N       30.8764  24.9482   1.5338   N.2       1 RES1   0.0000
  2156 H       31.5846  27.5645   4.6997   H         1 RES1   0.0000
  2157 H       31.5846  29.2823   6.4175   H         1 RES1   0.0000
  2158 C       32.2683  27.7206   5.3097   C.2       1 RES1   0.0000
  2159 C       32.2683  28.6723   6.2614   C.2       1 RES1   0.0000
  2160 N       33.4437  27.0203   5.3899   N.3       1 RES1   0.0000
  2161 N       33.4437  28.5921   6.9617   N.3       1 RES1   0.0000
  2162 H       31.5846  23.4085  12.2913   H         1 RES1   0.0000
  2163 H       31.5846  21.6907  10.5735   H         1 RES1   0.0000
  2164 C       32.2683  23.2524  11.6813   C.2       1 RES1   0.0000
  2165 C       32.2683  22.3007  10.7296   C.2       1 RES1   0.0000
  2166 N       33.4437  23.9527  11.6011   N.3       1 RES1   0.0000
  2167 N       33.4437  22.3809  10.0293   N.3       1 RES1   0.0000
  2168 Zn      33.9820  25.4865  12.7432   Zn        1 RES1   0.0000
  2169 Zn      33.9820  25.4865  21.2387   Zn        1 RES1   0.0000
  2170 H       32.6261  24.7848  24.2241   H         1 RES1   0.0000
  2171 H       31.8955  23.8859  23.1689   H         1 RES1   0.0000
  2172 H       32.2166  23.3184  24.5945   H         1 RES1   0.0000
  2173 C       33.8478  23.3975  23.3975   C.3       1 RES1   0.0000
  2174 C       32.5293  23.8910  23.8910   C.3       1 RES1   0.0000
  2175 H       32.6261  26.7489   9.1972   H         1 RES1   0.0000
  2176 H       31.8955  27.8041  10.0961   H         1 RES1   0.0000
  2177 H       32.2166  26.3785  10.6636   H         1 RES1   0.0000
  2178 C       33.8478  27.5755  10.5845   C.3       1 RES1   0.0000
  2179 C       32.5293  27.0820  10.0910   C.3       1 RES1   0.0000
  2180 H       27.5645  29.2823  19.3884   H         1 RES1   0.0000
  2181 H       26.1882  26.7489  15.6351   H         1 RES1   0.0000
  2182 H       27.0871  27.8041  14.9045   H         1 RES1   0.0000
  2183 H       27.6546  26.3785  15.2256   H         1 RES1   0.0000
  2184 H       29.2823  27.5645  19.3884   H         1 RES1   0.0000
  2185 H       31.9040  23.0891  20.7868   H         1 RES1   0.0000
  2186 H       33.2803  26.8424  18.2534   H         1 RES1   0.0000
  2187 H       32.3814  27.5730  19.3086   H         1 RES1   0.0000
  2188 H       31.8139  27.2519  17.8830   H         1 RES1   0.0000
  2189 H       23.0891  31.9040  20.7868   H         1 RES1   0.0000
  2190 H       23.0891  30.1862  19.0690   H         1 RES1   0.0000
  2191 H       26.8424  32.7196  17.6927   H         1 RES1   0.0000
  2192 H       27.5730  31.6644  18.5916   H         1 RES1   0.0000
  2193 H       27.2519  33.0900  19.1591   H         1 RES1   0.0000
  2194 H       30.1862  23.0891  19.0690   H         1 RES1   0.0000
  2195 C       27.5755  27.5755  16.8568   C.2       1 RES1   0.0000
  2196 C       27.7206  28.6723  18.7047   C.2       1 RES1   0.0000
  2197 C       27.0820  27.0820  15.5383   C.3       1 RES1   0.0000
  2198 C       28.6723  27.7206  18.7047   C.2       1 RES1   0.0000
  2199 C       31.8930  25.6207  19.0800   C.2       1 RES1   0.0000
  2200 C       31.7479  23.7728  20.1768   C.2       1 RES1   0.0000
  2201 C       32.3865  26.9392  18.5865   C.3       1 RES1   0.0000
  2202 C       25.6207  31.8930  19.0800   C.2       1 RES1   0.0000
  2203 C       23.7728  31.7479  20.1768   C.2       1 RES1   0.0000
  2204 C       26.9392  32.3865  18.5865   C.3       1 RES1   0.0000
  2205 C       23.7728  30.7962  19.2251   C.2       1 RES1   0.0000
  2206 C       30.7962  23.7728  19.2251   C.2       1 RES1   0.0000
  2207 N       27.0203  28.5921  17.5293   N.2       1 RES1   0.0000
  2208 N       28.5921  27.0203  17.5293   N.2       1 RES1   0.0000
  2209 N       32.4482  24.9482  20.0966   N.2       1 RES1   0.0000
  2210 N       24.9482  30.8764  18.5248   N.2       1 RES1   0.0000
  2211 N       30.8764  24.9482  18.5248   N.2       1 RES1   0.0000
  2212 H       31.5846  27.5645  21.6907   H         1 RES1   0.0000
  2213 H       31.5846  29.2823  23.4085   H         1 RES1   0.0000
  2214 C       32.2683  27.7206  22.3007   C.2       1 RES1   0.0000
  2215 C       32.2683  28.6723  23.2524   C.2       1 RES1   0.0000
  2216 N       33.4437  27.0203  22.3809   N.3       1 RES1   0.0000
  2217 N       33.4437  28.5921  23.9527   N.3       1 RES1   0.0000
  2218 H       31.5846  23.4085  29.2823   H         1 RES1   0.0000
  2219 H       31.5846  21.6907  27.5645   H         1 RES1   0.0000
  2220 C       32.2683  23.2524  28.6723   C.2       1 RES1   0.0000
  2221 C       32.2683  22.3007  27.7206   C.2       1 RES1   0.0000
  2222 N       33.4437  23.9527  28.5921   N.3       1 RES1   0.0000
  2223 N       33.4437  22.3809  27.0203   N.3       1 RES1   0.0000
  2224 H       31.9040  27.8839  13.1952   H         1 RES1   0.0000
  2225 H       33.2803  24.1306  15.7286   H         1 RES1   0.0000
  2226 H       32.3814  23.4000  14.6734   H         1 RES1   0.0000
  2227 H       31.8139  23.7211  16.0990   H         1 RES1   0.0000
  2228 H       30.1862  27.8839  14.9130   H         1 RES1   0.0000
  2229 C       31.8930  25.3523  14.9020   C.2       1 RES1   0.0000
  2230 C       31.7479  27.2002  13.8052   C.2       1 RES1   0.0000
  2231 C       32.3865  24.0338  15.3955   C.3       1 RES1   0.0000
  2232 C       30.7962  27.2002  14.7569   C.2       1 RES1   0.0000
  2233 N       32.4482  26.0248  13.8854   N.2       1 RES1   0.0000
  2234 N       30.8764  26.0248  15.4572   N.2       1 RES1   0.0000
  2235 Zn      33.9820  25.4865  29.7342   Zn        1 RES1   0.0000
  2236 H       32.6261  26.7489  26.1882   H         1 RES1   0.0000
  2237 H       31.8955  27.8041  27.0871   H         1 RES1   0.0000
  2238 H       32.2166  26.3785  27.6546   H         1 RES1   0.0000
  2239 C       33.8478  27.5755  27.5755   C.3       1 RES1   0.0000
  2240 C       32.5293  27.0820  27.0820   C.3       1 RES1   0.0000
  2241 H       26.1882  26.7489  32.6261   H         1 RES1   0.0000
  2242 H       27.0871  27.8041  31.8955   H         1 RES1   0.0000
  2243 H       27.6546  26.3785  32.2166   H         1 RES1   0.0000
  2244 C       27.5755  27.5755  33.8478   C.3       1 RES1   0.0000
  2245 C       27.0820  27.0820  32.5293   C.3       1 RES1   0.0000
  2246 H       31.9040  27.8839  30.1862   H         1 RES1   0.0000
  2247 H       33.2803  24.1306  32.7196   H         1 RES1   0.0000
  2248 H       32.3814  23.4000  31.6644   H         1 RES1   0.0000
  2249 H       31.8139  23.7211  33.0900   H         1 RES1   0.0000
  2250 H       30.1862  27.8839  31.9040   H         1 RES1   0.0000
  2251 C       31.8930  25.3523  31.8930   C.2       1 RES1   0.0000
  2252 C       31.7479  27.2002  30.7962   C.2       1 RES1   0.0000
  2253 C       32.3865  24.0338  32.3865   C.3       1 RES1   0.0000
  2254 C       30.7962  27.2002  31.7479   C.2       1 RES1   0.0000
  2255 N       32.4482  26.0248  30.8764   N.2       1 RES1   0.0000
  2256 N       30.8764  26.0248  32.4482   N.2       1 RES1   0.0000
@<TRIPOS>BOND
     1    11    54    1
     2    11    60   un
     3    12    55    1
     4    12    61   un
     5    13    56    1
     6    13    64   un
     7    14    57    1
     8    14    65   un
     9     1    59    1
    10     1    62   un
    11     9    58    1
    12     9    63   un
    13    15    36    1
    14    16    37    1
    15    17    38    1
    16    18    39    1
    17    19    40    1
    18    20    41    1
    19    21    43    1
    20    22    44    1
    21    23    44    1
    22    24    44    1
    23    25    46    1
    24    26    49    1
    25    27    50    1
    26    28    50    1
    27    29    50    1
    28    30    51    1
    29    31    52    1
    30    32    47    1
    31    33    47    1
    32    34    47    1
    33    35    53    1
    34    36    41   un
    35    36    54    1
    36    37    40   un
    37    37    55    1
    38    38    39   un
    39    38    56    1
    40    39    57    1
    41    40    58    1
    42    41    59    1
    43    42    44    1
    44    42    60   un
    45    42    65   un
    46    43    53   un
    47    43    60   un
    48    45    47    1
    49    45    61   un
    50    45    64   un
    51    46    52   un
    52    46    61   un
    53    48    50    1
    54    48    62   un
    55    48    63   un
    56    49    51   un
    57    49    62   un
    58    51    63   un
    59    52    64   un
    60    53    65   un
    61    66    70    1
    62    67    70    1
    63    68    70    1
    64    69    70    1
    65    71    75    1
    66    72    75    1
    67    73    75    1
    68    74    75    1
    69    76    80    1
    70    77    80    1
    71    78    80    1
    72    79    80    1
    73    81    85    1
    74    82    85    1
    75    83    85    1
    76    84    85    1
    77    86    90    1
    78    87    90    1
    79    88    90    1
    80    89    90    1
    81    91    95    1
    82    92    95    1
    83    93    95    1
    84    94    95    1
    85   101   149    1
    86   101   155   un
    87   102   150    1
    88   102   156   un
    89   103   151   un
    90   103   159   un
    91   103   188   un
    92   103   247   un
    93   104   152   un
    94   104   160   un
    95   104   216   un
    96   104   257   un
    97     2   154    1
    98     2   157   un
    99    10   153    1
   100    10   158   un
   101   105   129    1
   102   106   130    1
   103   107   132    1
   104   108   133    1
   105   109   133    1
   106   110   133    1
   107   111   134    1
   108   112   135    1
   109   113   136    1
   110   114   138    1
   111   115   139    1
   112   116   139    1
   113   117   139    1
   114   118   141    1
   115   119   144    1
   116   120   145    1
   117   121   145    1
   118   122   145    1
   119   123   146    1
   120   124   147    1
   121   125   142    1
   122   126   142    1
   123   127   142    1
   124   128   148    1
   125   129   136   un
   126   129   149    1
   127   130   135   un
   128   130   150    1
   129   131   133    1
   130   131   151   un
   131   131   152   un
   132   132   134   un
   133   132   151   un
   134   134   152   un
   135   135   153    1
   136   136   154    1
   137   137   139    1
   138   137   155   un
   139   137   160   un
   140   138   148   un
   141   138   155   un
   142   140   142    1
   143   140   156   un
   144   140   159   un
   145   141   147   un
   146   141   156   un
   147   143   145    1
   148   143   157   un
   149   143   158   un
   150   144   146   un
   151   144   157   un
   152   146   158   un
   153   147   159   un
   154   148   160   un
   155    96   183    1
   156    96   185   un
   157    97   184    1
   158    97   186   un
   159   161   173    1
   160   162   174    1
   161   163   176    1
   162   164   179    1
   163   165   181    1
   164   166   180    1
   165   167   180    1
   166   168   180    1
   167   169   182    1
   168   170   177    1
   169   171   177    1
   170   172   177    1
   171   173   174   un
   172   173   183    1
   173   174   184    1
   174   175   177    1
   175   175   185   un
   176   175   188   un
   177   176   182   un
   178   176   185   un
   179   178   180    1
   180   178   186   un
   181   178   187   un
   182   179   181   un
   183   179   186   un
   184   181   187   un
   185   182   188   un
   186   187   259   un
   187    98   211    1
   188    98   213   un
   189     4   212    1
   190     4   215   un
   191   189   201    1
   192   190   202    1
   193   191   204    1
   194   192   207    1
   195   193   209    1
   196   194   208    1
   197   195   208    1
   198   196   208    1
   199   197   210    1
   200   198   205    1
   201   199   205    1
   202   200   205    1
   203   201   202   un
   204   201   211    1
   205   202   212    1
   206   203   205    1
   207   203   213   un
   208   203   216   un
   209   204   210   un
   210   204   213   un
   211   206   208    1
   212   206   214   un
   213   206   215   un
   214   207   209   un
   215   207   214   un
   216   209   215   un
   217   210   216   un
   218   214   260   un
   219   217   221    1
   220   218   221    1
   221   219   221    1
   222   220   221    1
   223   222   226    1
   224   223   226    1
   225   224   226    1
   226   225   226    1
   227   227   231    1
   228   228   231    1
   229   229   231    1
   230   230   231    1
   231   232   236    1
   232   233   236    1
   233   234   236    1
   234   235   236    1
   235   237   243    1
   236   238   245    1
   237   239   244    1
   238   240   244    1
   239   241   244    1
   240   242   244    1
   241   242   246   un
   242   242   247   un
   243   243   245   un
   244   243   246   un
   245   245   247   un
   246   246   264   un
   247   248   254    1
   248   249   256    1
   249   250   255    1
   250   251   255    1
   251   252   255    1
   252   253   255    1
   253   253   257   un
   254   253   258   un
   255   254   256   un
   256   254   257   un
   257   256   258   un
   258   258   265   un
   259   266   300   un
   260   266   334    1
   261   267   328   un
   262   267   339    1
   263   268   272    1
   264   269   272    1
   265   270   272    1
   266   271   272    1
   267   261   295    1
   268   261   297   un
   269   262   296    1
   270   262   298   un
   271   273   285    1
   272   274   286    1
   273   275   288    1
   274   276   291    1
   275   277   293    1
   276   278   292    1
   277   279   292    1
   278   280   292    1
   279   281   294    1
   280   282   289    1
   281   283   289    1
   282   284   289    1
   283   285   286   un
   284   285   295    1
   285   286   296    1
   286   287   289    1
   287   287   297   un
   288   287   300   un
   289   288   294   un
   290   288   297   un
   291   290   292    1
   292   290   298   un
   293   290   299   un
   294   291   293   un
   295   291   298   un
   296   293   299   un
   297   294   300   un
   298   299   341   un
   299   263   323    1
   300   263   325   un
   301     6   324    1
   302     6   327   un
   303   301   313    1
   304   302   314    1
   305   303   316    1
   306   304   319    1
   307   305   321    1
   308   306   320    1
   309   307   320    1
   310   308   320    1
   311   309   322    1
   312   310   317    1
   313   311   317    1
   314   312   317    1
   315   313   314   un
   316   313   323    1
   317   314   324    1
   318   315   317    1
   319   315   325   un
   320   315   328   un
   321   316   322   un
   322   316   325   un
   323   318   320    1
   324   318   326   un
   325   318   327   un
   326   319   321   un
   327   319   326   un
   328   321   327   un
   329   322   328   un
   330   326   342   un
   331   329   331    1
   332   330   332    1
   333   331   332   un
   334   331   333    1
   335   332   334    1
   336   333   343    1
   337   335   337    1
   338   336   338    1
   339   337   338   un
   340   337   339    1
   341   338   340    1
   342   340   344    1
   343   345   393    1
   344   345   399   un
   345   346   394   un
   346   346   400   un
   347   346   430   un
   348   346   452   un
   349   347   395    1
   350   347   403   un
   351   348   396    1
   352   348   404   un
   353     3   398    1
   354     3   401   un
   355   260   397   un
   356   260   402   un
   357   260   415   un
   358   349   373    1
   359   350   375    1
   360   351   377    1
   361   352   378    1
   362   353   379    1
   363   354   376    1
   364   355   376    1
   365   356   376    1
   366   357   380    1
   367   358   382    1
   368   359   383    1
   369   360   383    1
   370   361   383    1
   371   362   385    1
   372   363   388    1
   373   364   389    1
   374   365   389    1
   375   366   389    1
   376   367   390    1
   377   368   391    1
   378   369   386    1
   379   370   386    1
   380   371   386    1
   381   372   392    1
   382   373   380   un
   383   373   393    1
   384   374   376    1
   385   374   394   un
   386   374   397   un
   387   375   379   un
   388   375   394   un
   389   377   378   un
   390   377   395    1
   391   378   396    1
   392   379   397   un
   393   380   398    1
   394   381   383    1
   395   381   399   un
   396   381   404   un
   397   382   392   un
   398   382   399   un
   399   384   386    1
   400   384   400   un
   401   384   403   un
   402   385   391   un
   403   385   400   un
   404   387   389    1
   405   387   401   un
   406   387   402   un
   407   388   390   un
   408   388   401   un
   409   390   402   un
   410   391   403   un
   411   392   404   un
   412   405   411    1
   413   406   413    1
   414   407   412    1
   415   408   412    1
   416   409   412    1
   417   410   412    1
   418   410   414   un
   419   410   415   un
   420   411   413   un
   421   411   414   un
   422   413   415   un
   423   414   447   un
   424   416   420    1
   425   417   420    1
   426   418   420    1
   427   419   420    1
   428   421   427    1
   429   422   428    1
   430   423   428    1
   431   424   428    1
   432   425   429    1
   433   426   428    1
   434   426   430   un
   435   426   431   un
   436   427   429   un
   437   427   430   un
   438   429   431   un
   439   431   448   un
   440   432   436    1
   441   433   436    1
   442   434   436    1
   443   435   436    1
   444   437   441    1
   445   438   441    1
   446   439   441    1
   447   440   441    1
   448   442   446    1
   449   443   446    1
   450   444   446    1
   451   445   446    1
   452   453   506    1
   453   453   512   un
   454   454   507   un
   455   454   513   un
   456   454   604   un
   457   454   663   un
   458   455   508   un
   459   455   516   un
   460   455   550   un
   461   455   621   un
   462   456   509   un
   463   456   517   un
   464   456   578   un
   465   456   631   un
   466     5   511    1
   467     5   514   un
   468   342   510   un
   469   342   515   un
   470   342   589   un
   471   457   484    1
   472   458   486    1
   473   459   489    1
   474   460   490    1
   475   461   490    1
   476   462   490    1
   477   463   491    1
   478   464   492    1
   479   465   487    1
   480   466   487    1
   481   467   487    1
   482   468   493    1
   483   469   495    1
   484   470   496    1
   485   471   496    1
   486   472   496    1
   487   473   498    1
   488   474   501    1
   489   475   502    1
   490   476   502    1
   491   477   502    1
   492   478   503    1
   493   479   504    1
   494   480   499    1
   495   481   499    1
   496   482   499    1
   497   483   505    1
   498   484   493   un
   499   484   506    1
   500   485   487    1
   501   485   507   un
   502   485   510   un
   503   486   492   un
   504   486   507   un
   505   488   490    1
   506   488   508   un
   507   488   509   un
   508   489   491   un
   509   489   508   un
   510   491   509   un
   511   492   510   un
   512   493   511    1
   513   494   496    1
   514   494   512   un
   515   494   517   un
   516   495   505   un
   517   495   512   un
   518   497   499    1
   519   497   513   un
   520   497   516   un
   521   498   504   un
   522   498   513   un
   523   500   502    1
   524   500   514   un
   525   500   515   un
   526   501   503   un
   527   501   514   un
   528   503   515   un
   529   504   516   un
   530   505   517   un
   531   447   545   un
   532   447   547   un
   533   447   642   un
   534   448   546   un
   535   448   548   un
   536   448   654   un
   537   518   534    1
   538   519   535    1
   539   520   535    1
   540   521   535    1
   541   522   536    1
   542   523   538    1
   543   524   541    1
   544   525   543    1
   545   526   542    1
   546   527   542    1
   547   528   542    1
   548   529   544    1
   549   530   539    1
   550   531   539    1
   551   532   539    1
   552   533   535    1
   553   533   545   un
   554   533   546   un
   555   534   536   un
   556   534   545   un
   557   536   546   un
   558   537   539    1
   559   537   547   un
   560   537   550   un
   561   538   544   un
   562   538   547   un
   563   540   542    1
   564   540   548   un
   565   540   549   un
   566   541   543   un
   567   541   548   un
   568   543   549   un
   569   544   550   un
   570   549   655   un
   571   449   573    1
   572   449   575   un
   573     7   574    1
   574     7   577   un
   575   551   563    1
   576   552   564    1
   577   553   566    1
   578   554   569    1
   579   555   571    1
   580   556   570    1
   581   557   570    1
   582   558   570    1
   583   559   572    1
   584   560   567    1
   585   561   567    1
   586   562   567    1
   587   563   564   un
   588   563   573    1
   589   564   574    1
   590   565   567    1
   591   565   575   un
   592   565   578   un
   593   566   572   un
   594   566   575   un
   595   568   570    1
   596   568   576   un
   597   568   577   un
   598   569   571   un
   599   569   576   un
   600   571   577   un
   601   572   578   un
   602   576   656   un
   603   579   585    1
   604   580   587    1
   605   581   586    1
   606   582   586    1
   607   583   586    1
   608   584   586    1
   609   584   588   un
   610   584   589   un
   611   585   587   un
   612   585   588   un
   613   587   589   un
   614   588   657   un
   615   590   594    1
   616   591   594    1
   617   592   594    1
   618   593   594    1
   619   595   601    1
   620   596   602    1
   621   597   602    1
   622   598   602    1
   623   599   603    1
   624   600   602    1
   625   600   604   un
   626   600   605   un
   627   601   603   un
   628   601   604   un
   629   603   605   un
   630   605   658   un
   631   606   610    1
   632   607   610    1
   633   608   610    1
   634   609   610    1
   635   611   617    1
   636   612   619    1
   637   613   618    1
   638   614   618    1
   639   615   618    1
   640   616   618    1
   641   616   620   un
   642   616   621   un
   643   617   619   un
   644   617   620   un
   645   619   621   un
   646   620   661   un
   647   622   628    1
   648   623   630    1
   649   624   629    1
   650   625   629    1
   651   626   629    1
   652   627   629    1
   653   627   631   un
   654   627   632   un
   655   628   630   un
   656   628   631   un
   657   630   632   un
   658   632   662   un
   659   633   639    1
   660   634   640    1
   661   635   640    1
   662   636   640    1
   663   637   641    1
   664   638   640    1
   665   638   642   un
   666   638   643   un
   667   639   641   un
   668   639   642   un
   669   641   643   un
   670   643   265   un
   671   644   650    1
   672   645   651    1
   673   646   651    1
   674   647   651    1
   675   648   652    1
   676   649   651    1
   677   649   653   un
   678   649   654   un
   679   650   652   un
   680   650   653   un
   681   652   654   un
   682   653   660   un
   683   664   703   un
   684   664   737    1
   685   665   731   un
   686   665   742    1
   687   666   670    1
   688   667   670    1
   689   668   670    1
   690   669   670    1
   691   657   698   un
   692   657   700   un
   693   657   753   un
   694   658   699   un
   695   658   701   un
   696   658   765   un
   697   671   687    1
   698   672   688    1
   699   673   688    1
   700   674   688    1
   701   675   689    1
   702   676   691    1
   703   677   694    1
   704   678   696    1
   705   679   695    1
   706   680   695    1
   707   681   695    1
   708   682   697    1
   709   683   692    1
   710   684   692    1
   711   685   692    1
   712   686   688    1
   713   686   698   un
   714   686   699   un
   715   687   689   un
   716   687   698   un
   717   689   699   un
   718   690   692    1
   719   690   700   un
   720   690   703   un
   721   691   697   un
   722   691   700   un
   723   693   695    1
   724   693   701   un
   725   693   702   un
   726   694   696   un
   727   694   701   un
   728   696   702   un
   729   697   703   un
   730   702   766   un
   731   659   726    1
   732   659   728   un
   733     8   727    1
   734     8   730   un
   735   704   716    1
   736   705   717    1
   737   706   719    1
   738   707   722    1
   739   708   724    1
   740   709   723    1
   741   710   723    1
   742   711   723    1
   743   712   725    1
   744   713   720    1
   745   714   720    1
   746   715   720    1
   747   716   717   un
   748   716   726    1
   749   717   727    1
   750   718   720    1
   751   718   728   un
   752   718   731   un
   753   719   725   un
   754   719   728   un
   755   721   723    1
   756   721   729   un
   757   721   730   un
   758   722   724   un
   759   722   729   un
   760   724   730   un
   761   725   731   un
   762   729   767   un
   763   732   734    1
   764   733   735    1
   765   734   735   un
   766   734   736    1
   767   735   737    1
   768   736   769    1
   769   738   740    1
   770   739   741    1
   771   740   741   un
   772   740   742    1
   773   741   743    1
   774   743   770    1
   775   744   750    1
   776   745   751    1
   777   746   751    1
   778   747   751    1
   779   748   752    1
   780   749   751    1
   781   749   753   un
   782   749   754   un
   783   750   752   un
   784   750   753   un
   785   752   754   un
   786   754   344   un
   787   755   761    1
   788   756   762    1
   789   757   762    1
   790   758   762    1
   791   759   763    1
   792   760   762    1
   793   760   764   un
   794   760   765   un
   795   761   763   un
   796   761   764   un
   797   763   765   un
   798   764   768   un
   799   771   787    1
   800   771   791   un
   801   656   782    1
   802   772   776    1
   803   773   776    1
   804   774   776    1
   805   775   776    1
   806   777   779    1
   807   778   780    1
   808   779   780   un
   809   779   781    1
   810   780   782    1
   811   781   789    1
   812   783   785    1
   813   784   786    1
   814   785   786   un
   815   785   787    1
   816   786   788    1
   817   788   790    1
   818   792   813    1
   819   792   840   un
   820   767   808    1
   821   793   797    1
   822   794   797    1
   823   795   797    1
   824   796   797    1
   825   789   824   un
   826   790   836   un
   827   798   802    1
   828   799   802    1
   829   800   802    1
   830   801   802    1
   831   803   805    1
   832   804   806    1
   833   805   806   un
   834   805   807    1
   835   806   808    1
   836   807   837    1
   837   809   811    1
   838   810   812    1
   839   811   812   un
   840   811   813    1
   841   812   814    1
   842   814   838    1
   843   815   821    1
   844   816   822    1
   845   817   822    1
   846   818   822    1
   847   819   823    1
   848   820   822    1
   849   820   824   un
   850   820   825   un
   851   821   823   un
   852   821   824   un
   853   823   825   un
   854   825   662   un
   855   826   832    1
   856   827   833    1
   857   828   833    1
   858   829   833    1
   859   830   834    1
   860   831   833    1
   861   831   835   un
   862   831   836   un
   863   832   834   un
   864   832   835   un
   865   834   836   un
   866   835   839   un
   867   837   855   un
   868   838   867   un
   869   841   845    1
   870   842   845    1
   871   843   845    1
   872   844   845    1
   873   846   852    1
   874   847   853    1
   875   848   853    1
   876   849   853    1
   877   850   854    1
   878   851   853    1
   879   851   855   un
   880   851   856   un
   881   852   854   un
   882   852   855   un
   883   854   856   un
   884   856   770   un
   885   857   863    1
   886   858   864    1
   887   859   864    1
   888   860   864    1
   889   861   865    1
   890   862   864    1
   891   862   866   un
   892   862   867   un
   893   863   865   un
   894   863   866   un
   895   865   867   un
   896   866   868   un
   897   871   919   un
   898   871   925   un
   899   871   955   un
   900   871   972   un
   901   872   920    1
   902   872   926   un
   903   873   921    1
   904   873   929   un
   905   874   922    1
   906   874   930   un
   907   259   924   un
   908   259   927   un
   909   259   989   un
   910   869   923    1
   911   869   928   un
   912   875   900    1
   913   876   901    1
   914   877   901    1
   915   878   901    1
   916   879   902    1
   917   880   903    1
   918   881   904    1
   919   882   905    1
   920   883   906    1
   921   884   908    1
   922   885   909    1
   923   886   909    1
   924   887   909    1
   925   888   911    1
   926   889   914    1
   927   890   915    1
   928   891   915    1
   929   892   915    1
   930   893   916    1
   931   894   917    1
   932   895   912    1
   933   896   912    1
   934   897   912    1
   935   898   918    1
   936   899   901    1
   937   899   919   un
   938   899   924   un
   939   900   906   un
   940   900   919   un
   941   902   905   un
   942   902   920    1
   943   903   904   un
   944   903   921    1
   945   904   922    1
   946   905   923    1
   947   906   924   un
   948   907   909    1
   949   907   925   un
   950   907   930   un
   951   908   918   un
   952   908   925   un
   953   910   912    1
   954   910   926   un
   955   910   929   un
   956   911   917   un
   957   911   926   un
   958   913   915    1
   959   913   927   un
   960   913   928   un
   961   914   916   un
   962   914   927   un
   963   916   928   un
   964   917   929   un
   965   918   930   un
   966    99   954    1
   967    99   957   un
   968   100   953    1
   969   100   956   un
   970   931   943    1
   971   932   944    1
   972   933   946    1
   973   934   947    1
   974   935   947    1
   975   936   947    1
   976   937   949    1
   977   938   951    1
   978   939   950    1
   979   940   950    1
   980   941   950    1
   981   942   952    1
   982   943   944   un
   983   943   953    1
   984   944   954    1
   985   945   947    1
   986   945   955   un
   987   945   957   un
   988   946   952   un
   989   946   955   un
   990   948   950    1
   991   948   452   un
   992   948   956   un
   993   949   951   un
   994   949   452   un
   995   951   956   un
   996   952   957   un
   997   958   962    1
   998   959   962    1
   999   960   962    1
  1000   961   962    1
  1001   963   969    1
  1002   964   971    1
  1003   965   970    1
  1004   966   970    1
  1005   967   970    1
  1006   968   970    1
  1007   968   972   un
  1008   968   973   un
  1009   969   971   un
  1010   969   972   un
  1011   971   973   un
  1012   973   660   un
  1013   974   978    1
  1014   975   978    1
  1015   976   978    1
  1016   977   978    1
  1017   979   985    1
  1018   980   986    1
  1019   981   986    1
  1020   982   986    1
  1021   983   987    1
  1022   984   986    1
  1023   984   988   un
  1024   984   989   un
  1025   985   987   un
  1026   985   988   un
  1027   987   989   un
  1028   988  1002   un
  1029   990   994    1
  1030   991   994    1
  1031   992   994    1
  1032   993   994    1
  1033   995   999    1
  1034   996   999    1
  1035   997   999    1
  1036   998   999    1
  1037  1005  1058   un
  1038  1005  1064   un
  1039  1005  1160   un
  1040  1005  1177   un
  1041  1006  1059    1
  1042  1006  1065   un
  1043  1007  1060   un
  1044  1007  1068   un
  1045  1007  1097   un
  1046  1007  1205   un
  1047  1008  1061   un
  1048  1008  1069   un
  1049  1008  1130   un
  1050  1008  1215   un
  1051   341  1063   un
  1052   341  1066   un
  1053   341  1194   un
  1054   870  1062    1
  1055   870  1067   un
  1056  1009  1037    1
  1057  1010  1038    1
  1058  1011  1038    1
  1059  1012  1038    1
  1060  1013  1039    1
  1061  1014  1041    1
  1062  1015  1042    1
  1063  1016  1042    1
  1064  1017  1042    1
  1065  1018  1043    1
  1066  1019  1044    1
  1067  1020  1045    1
  1068  1021  1047    1
  1069  1022  1048    1
  1070  1023  1048    1
  1071  1024  1048    1
  1072  1025  1050    1
  1073  1026  1053    1
  1074  1027  1054    1
  1075  1028  1054    1
  1076  1029  1054    1
  1077  1030  1055    1
  1078  1031  1056    1
  1079  1032  1051    1
  1080  1033  1051    1
  1081  1034  1051    1
  1082  1035  1057    1
  1083  1036  1038    1
  1084  1036  1058   un
  1085  1036  1063   un
  1086  1037  1045   un
  1087  1037  1058   un
  1088  1039  1044   un
  1089  1039  1059    1
  1090  1040  1042    1
  1091  1040  1060   un
  1092  1040  1061   un
  1093  1041  1043   un
  1094  1041  1060   un
  1095  1043  1061   un
  1096  1044  1062    1
  1097  1045  1063   un
  1098  1046  1048    1
  1099  1046  1064   un
  1100  1046  1069   un
  1101  1047  1057   un
  1102  1047  1064   un
  1103  1049  1051    1
  1104  1049  1065   un
  1105  1049  1068   un
  1106  1050  1056   un
  1107  1050  1065   un
  1108  1052  1054    1
  1109  1052  1066   un
  1110  1052  1067   un
  1111  1053  1055   un
  1112  1053  1066   un
  1113  1055  1067   un
  1114  1056  1068   un
  1115  1057  1069   un
  1116  1000  1092    1
  1117  1000  1094   un
  1118  1001  1093    1
  1119  1001  1095   un
  1120  1070  1082    1
  1121  1071  1083    1
  1122  1072  1085    1
  1123  1073  1088    1
  1124  1074  1090    1
  1125  1075  1089    1
  1126  1076  1089    1
  1127  1077  1089    1
  1128  1078  1091    1
  1129  1079  1086    1
  1130  1080  1086    1
  1131  1081  1086    1
  1132  1082  1083   un
  1133  1082  1092    1
  1134  1083  1093    1
  1135  1084  1086    1
  1136  1084  1094   un
  1137  1084  1097   un
  1138  1085  1091   un
  1139  1085  1094   un
  1140  1087  1089    1
  1141  1087  1095   un
  1142  1087  1096   un
  1143  1088  1090   un
  1144  1088  1095   un
  1145  1090  1096   un
  1146  1091  1097   un
  1147  1096  1228   un
  1148  1002  1125   un
  1149  1002  1127   un
  1150  1002  1226   un
  1151   660  1126   un
  1152   660  1129   un
  1153  1098  1114    1
  1154  1099  1116    1
  1155  1100  1115    1
  1156  1101  1115    1
  1157  1102  1115    1
  1158  1103  1118    1
  1159  1104  1121    1
  1160  1105  1123    1
  1161  1106  1122    1
  1162  1107  1122    1
  1163  1108  1122    1
  1164  1109  1124    1
  1165  1110  1119    1
  1166  1111  1119    1
  1167  1112  1119    1
  1168  1113  1115    1
  1169  1113  1125   un
  1170  1113  1126   un
  1171  1114  1116   un
  1172  1114  1125   un
  1173  1116  1126   un
  1174  1117  1119    1
  1175  1117  1127   un
  1176  1117  1130   un
  1177  1118  1124   un
  1178  1118  1127   un
  1179  1120  1122    1
  1180  1120  1128   un
  1181  1120  1129   un
  1182  1121  1123   un
  1183  1121  1128   un
  1184  1123  1129   un
  1185  1124  1130   un
  1186  1128  1229   un
  1187   264  1159   un
  1188   264  1162   un
  1189   264  1227   un
  1190   265  1158   un
  1191   265  1161   un
  1192  1131  1147    1
  1193  1132  1148    1
  1194  1133  1148    1
  1195  1134  1148    1
  1196  1135  1149    1
  1197  1136  1151    1
  1198  1137  1152    1
  1199  1138  1152    1
  1200  1139  1152    1
  1201  1140  1154    1
  1202  1141  1156    1
  1203  1142  1155    1
  1204  1143  1155    1
  1205  1144  1155    1
  1206  1145  1157    1
  1207  1146  1148    1
  1208  1146  1158   un
  1209  1146  1159   un
  1210  1147  1149   un
  1211  1147  1158   un
  1212  1149  1159   un
  1213  1150  1152    1
  1214  1150  1160   un
  1215  1150  1162   un
  1216  1151  1157   un
  1217  1151  1160   un
  1218  1153  1155    1
  1219  1153   663   un
  1220  1153  1161   un
  1221  1154  1156   un
  1222  1154   663   un
  1223  1156  1161   un
  1224  1157  1162   un
  1225  1163  1167    1
  1226  1164  1167    1
  1227  1165  1167    1
  1228  1166  1167    1
  1229  1168  1174    1
  1230  1169  1176    1
  1231  1170  1175    1
  1232  1171  1175    1
  1233  1172  1175    1
  1234  1173  1175    1
  1235  1173  1177   un
  1236  1173  1178   un
  1237  1174  1176   un
  1238  1174  1177   un
  1239  1176  1178   un
  1240  1178   768   un
  1241  1179  1183    1
  1242  1180  1183    1
  1243  1181  1183    1
  1244  1182  1183    1
  1245  1184  1190    1
  1246  1185  1191    1
  1247  1186  1191    1
  1248  1187  1191    1
  1249  1188  1192    1
  1250  1189  1191    1
  1251  1189  1193   un
  1252  1189  1194   un
  1253  1190  1192   un
  1254  1190  1193   un
  1255  1192  1194   un
  1256  1193  1232   un
  1257  1195  1201    1
  1258  1196  1203    1
  1259  1197  1202    1
  1260  1198  1202    1
  1261  1199  1202    1
  1262  1200  1202    1
  1263  1200  1204   un
  1264  1200  1205   un
  1265  1201  1203   un
  1266  1201  1204   un
  1267  1203  1205   un
  1268  1204  1233   un
  1269  1206  1212    1
  1270  1207  1214    1
  1271  1208  1213    1
  1272  1209  1213    1
  1273  1210  1213    1
  1274  1211  1213    1
  1275  1211  1215   un
  1276  1211  1216   un
  1277  1212  1214   un
  1278  1212  1215   un
  1279  1214  1216   un
  1280  1216  1234   un
  1281  1217  1223    1
  1282  1218  1224    1
  1283  1219  1224    1
  1284  1220  1224    1
  1285  1221  1225    1
  1286  1222  1224    1
  1287  1222  1226   un
  1288  1222  1227   un
  1289  1223  1225   un
  1290  1223  1226   un
  1291  1225  1227   un
  1292  1235  1269   un
  1293  1235  1313    1
  1294  1236  1302   un
  1295  1236  1318    1
  1296  1237  1241    1
  1297  1238  1241    1
  1298  1239  1241    1
  1299  1240  1241    1
  1300  1230  1264    1
  1301  1230  1266   un
  1302  1231  1265    1
  1303  1231  1267   un
  1304  1242  1254    1
  1305  1243  1255    1
  1306  1244  1257    1
  1307  1245  1260    1
  1308  1246  1262    1
  1309  1247  1261    1
  1310  1248  1261    1
  1311  1249  1261    1
  1312  1250  1263    1
  1313  1251  1258    1
  1314  1252  1258    1
  1315  1253  1258    1
  1316  1254  1255   un
  1317  1254  1264    1
  1318  1255  1265    1
  1319  1256  1258    1
  1320  1256  1266   un
  1321  1256  1269   un
  1322  1257  1263   un
  1323  1257  1266   un
  1324  1259  1261    1
  1325  1259  1267   un
  1326  1259  1268   un
  1327  1260  1262   un
  1328  1260  1267   un
  1329  1262  1268   un
  1330  1263  1269   un
  1331  1268  1331   un
  1332  1232  1297   un
  1333  1232  1299   un
  1334  1232  1329   un
  1335   768  1298   un
  1336   768  1301   un
  1337  1270  1286    1
  1338  1271  1288    1
  1339  1272  1287    1
  1340  1273  1287    1
  1341  1274  1287    1
  1342  1275  1290    1
  1343  1276  1293    1
  1344  1277  1295    1
  1345  1278  1294    1
  1346  1279  1294    1
  1347  1280  1294    1
  1348  1281  1296    1
  1349  1282  1291    1
  1350  1283  1291    1
  1351  1284  1291    1
  1352  1285  1287    1
  1353  1285  1297   un
  1354  1285  1298   un
  1355  1286  1288   un
  1356  1286  1297   un
  1357  1288  1298   un
  1358  1289  1291    1
  1359  1289  1299   un
  1360  1289  1302   un
  1361  1290  1296   un
  1362  1290  1299   un
  1363  1292  1294    1
  1364  1292  1300   un
  1365  1292  1301   un
  1366  1293  1295   un
  1367  1293  1300   un
  1368  1295  1301   un
  1369  1296  1302   un
  1370  1300  1332   un
  1371   343  1330   un
  1372  1303  1307    1
  1373  1304  1307    1
  1374  1305  1307    1
  1375  1306  1307    1
  1376  1308  1310    1
  1377  1309  1311    1
  1378  1310  1311   un
  1379  1310  1312    1
  1380  1311  1313    1
  1381  1312  1333    1
  1382  1314  1316    1
  1383  1315  1317    1
  1384  1316  1317   un
  1385  1316  1318    1
  1386  1317  1319    1
  1387  1319  1334    1
  1388  1320  1326    1
  1389  1321  1327    1
  1390  1322  1327    1
  1391  1323  1327    1
  1392  1324  1328    1
  1393  1325  1327    1
  1394  1325  1329   un
  1395  1325  1330   un
  1396  1326  1328   un
  1397  1326  1329   un
  1398  1328  1330   un
  1399  1335  1388   un
  1400  1335  1394   un
  1401  1335  1424   un
  1402  1335  1447   un
  1403  1336  1389   un
  1404  1336  1395   un
  1405  1336  1458   un
  1406  1336  1486   un
  1407  1337  1390    1
  1408  1337  1398   un
  1409  1338  1391    1
  1410  1338  1399   un
  1411   655  1393   un
  1412   655  1396   un
  1413   655  1470   un
  1414  1229  1392   un
  1415  1229  1397   un
  1416  1229  1437   un
  1417  1339  1367    1
  1418  1340  1368    1
  1419  1341  1368    1
  1420  1342  1368    1
  1421  1343  1370    1
  1422  1344  1372    1
  1423  1345  1373    1
  1424  1346  1374    1
  1425  1347  1371    1
  1426  1348  1371    1
  1427  1349  1371    1
  1428  1350  1375    1
  1429  1351  1377    1
  1430  1352  1378    1
  1431  1353  1378    1
  1432  1354  1378    1
  1433  1355  1380    1
  1434  1356  1383    1
  1435  1357  1384    1
  1436  1358  1384    1
  1437  1359  1384    1
  1438  1360  1385    1
  1439  1361  1386    1
  1440  1362  1381    1
  1441  1363  1381    1
  1442  1364  1381    1
  1443  1365  1387    1
  1444  1366  1368    1
  1445  1366  1388   un
  1446  1366  1393   un
  1447  1367  1375   un
  1448  1367  1388   un
  1449  1369  1371    1
  1450  1369  1389   un
  1451  1369  1392   un
  1452  1370  1374   un
  1453  1370  1389   un
  1454  1372  1373   un
  1455  1372  1390    1
  1456  1373  1391    1
  1457  1374  1392   un
  1458  1375  1393   un
  1459  1376  1378    1
  1460  1376  1394   un
  1461  1376  1399   un
  1462  1377  1387   un
  1463  1377  1394   un
  1464  1379  1381    1
  1465  1379  1395   un
  1466  1379  1398   un
  1467  1380  1386   un
  1468  1380  1395   un
  1469  1382  1384    1
  1470  1382  1396   un
  1471  1382  1397   un
  1472  1383  1385   un
  1473  1383  1396   un
  1474  1385  1397   un
  1475  1386  1398   un
  1476  1387  1399   un
  1477   450  1423    1
  1478   450  1426   un
  1479   451  1422    1
  1480   451  1425   un
  1481  1400  1412    1
  1482  1401  1413    1
  1483  1402  1415    1
  1484  1403  1416    1
  1485  1404  1416    1
  1486  1405  1416    1
  1487  1406  1418    1
  1488  1407  1420    1
  1489  1408  1419    1
  1490  1409  1419    1
  1491  1410  1419    1
  1492  1411  1421    1
  1493  1412  1413   un
  1494  1412  1422    1
  1495  1413  1423    1
  1496  1414  1416    1
  1497  1414  1424   un
  1498  1414  1426   un
  1499  1415  1421   un
  1500  1415  1424   un
  1501  1417  1419    1
  1502  1417   791   un
  1503  1417  1425   un
  1504  1418  1420   un
  1505  1418   791   un
  1506  1420  1425   un
  1507  1421  1426   un
  1508  1427  1433    1
  1509  1428  1435    1
  1510  1429  1434    1
  1511  1430  1434    1
  1512  1431  1434    1
  1513  1432  1434    1
  1514  1432  1436   un
  1515  1432  1437   un
  1516  1433  1435   un
  1517  1433  1436   un
  1518  1435  1437   un
  1519  1436  1481   un
  1520  1438  1444    1
  1521  1439  1446    1
  1522  1440  1445    1
  1523  1441  1445    1
  1524  1442  1445    1
  1525  1443  1445    1
  1526  1443  1447   un
  1527  1443  1448   un
  1528  1444  1446   un
  1529  1444  1447   un
  1530  1446  1448   un
  1531  1448   839   un
  1532  1449  1455    1
  1533  1450  1456    1
  1534  1451  1456    1
  1535  1452  1456    1
  1536  1453  1457    1
  1537  1454  1456    1
  1538  1454  1458   un
  1539  1454  1459   un
  1540  1455  1457   un
  1541  1455  1458   un
  1542  1457  1459   un
  1543  1459  1482   un
  1544  1460  1466    1
  1545  1461  1467    1
  1546  1462  1467    1
  1547  1463  1467    1
  1548  1464  1468    1
  1549  1465  1467    1
  1550  1465  1469   un
  1551  1465  1470   un
  1552  1466  1468   un
  1553  1466  1469   un
  1554  1468  1470   un
  1555  1469  1483   un
  1556  1471  1475    1
  1557  1472  1475    1
  1558  1473  1475    1
  1559  1474  1475    1
  1560  1476  1480    1
  1561  1477  1480    1
  1562  1478  1480    1
  1563  1479  1480    1
  1564  1487  1545   un
  1565  1487  1551   un
  1566  1487  1652   un
  1567  1487  1675   un
  1568  1488  1546   un
  1569  1488  1552   un
  1570  1488  1686   un
  1571  1488  1762   un
  1572  1489  1547   un
  1573  1489  1555   un
  1574  1489  1589   un
  1575  1489  1709   un
  1576  1490  1548   un
  1577  1490  1556   un
  1578  1490  1622   un
  1579  1490  1719   un
  1580   766  1550   un
  1581   766  1553   un
  1582   766  1698   un
  1583  1332  1549   un
  1584  1332  1554   un
  1585  1332  1665   un
  1586  1491  1522    1
  1587  1492  1523    1
  1588  1493  1523    1
  1589  1494  1523    1
  1590  1495  1525    1
  1591  1496  1528    1
  1592  1497  1529    1
  1593  1498  1529    1
  1594  1499  1529    1
  1595  1500  1530    1
  1596  1501  1531    1
  1597  1502  1526    1
  1598  1503  1526    1
  1599  1504  1526    1
  1600  1505  1532    1
  1601  1506  1534    1
  1602  1507  1535    1
  1603  1508  1535    1
  1604  1509  1535    1
  1605  1510  1537    1
  1606  1511  1540    1
  1607  1512  1541    1
  1608  1513  1541    1
  1609  1514  1541    1
  1610  1515  1542    1
  1611  1516  1543    1
  1612  1517  1538    1
  1613  1518  1538    1
  1614  1519  1538    1
  1615  1520  1544    1
  1616  1521  1523    1
  1617  1521  1545   un
  1618  1521  1550   un
  1619  1522  1532   un
  1620  1522  1545   un
  1621  1524  1526    1
  1622  1524  1546   un
  1623  1524  1549   un
  1624  1525  1531   un
  1625  1525  1546   un
  1626  1527  1529    1
  1627  1527  1547   un
  1628  1527  1548   un
  1629  1528  1530   un
  1630  1528  1547   un
  1631  1530  1548   un
  1632  1531  1549   un
  1633  1532  1550   un
  1634  1533  1535    1
  1635  1533  1551   un
  1636  1533  1556   un
  1637  1534  1544   un
  1638  1534  1551   un
  1639  1536  1538    1
  1640  1536  1552   un
  1641  1536  1555   un
  1642  1537  1543   un
  1643  1537  1552   un
  1644  1539  1541    1
  1645  1539  1553   un
  1646  1539  1554   un
  1647  1540  1542   un
  1648  1540  1553   un
  1649  1542  1554   un
  1650  1543  1555   un
  1651  1544  1556   un
  1652  1481  1584   un
  1653  1481  1586   un
  1654  1481  1730   un
  1655  1482  1585   un
  1656  1482  1587   un
  1657  1482  1742   un
  1658  1557  1573    1
  1659  1558  1574    1
  1660  1559  1574    1
  1661  1560  1574    1
  1662  1561  1575    1
  1663  1562  1577    1
  1664  1563  1580    1
  1665  1564  1582    1
  1666  1565  1581    1
  1667  1566  1581    1
  1668  1567  1581    1
  1669  1568  1583    1
  1670  1569  1578    1
  1671  1570  1578    1
  1672  1571  1578    1
  1673  1572  1574    1
  1674  1572  1584   un
  1675  1572  1585   un
  1676  1573  1575   un
  1677  1573  1584   un
  1678  1575  1585   un
  1679  1576  1578    1
  1680  1576  1586   un
  1681  1576  1589   un
  1682  1577  1583   un
  1683  1577  1586   un
  1684  1579  1581    1
  1685  1579  1587   un
  1686  1579  1588   un
  1687  1580  1582   un
  1688  1580  1587   un
  1689  1582  1588   un
  1690  1583  1589   un
  1691  1588  1754   un
  1692  1483  1617   un
  1693  1483  1619   un
  1694  1483  1752   un
  1695   839  1618   un
  1696   839  1621   un
  1697  1590  1606    1
  1698  1591  1608    1
  1699  1592  1607    1
  1700  1593  1607    1
  1701  1594  1607    1
  1702  1595  1610    1
  1703  1596  1613    1
  1704  1597  1615    1
  1705  1598  1614    1
  1706  1599  1614    1
  1707  1600  1614    1
  1708  1601  1616    1
  1709  1602  1611    1
  1710  1603  1611    1
  1711  1604  1611    1
  1712  1605  1607    1
  1713  1605  1617   un
  1714  1605  1618   un
  1715  1606  1608   un
  1716  1606  1617   un
  1717  1608  1618   un
  1718  1609  1611    1
  1719  1609  1619   un
  1720  1609  1622   un
  1721  1610  1616   un
  1722  1610  1619   un
  1723  1612  1614    1
  1724  1612  1620   un
  1725  1612  1621   un
  1726  1613  1615   un
  1727  1613  1620   un
  1728  1615  1621   un
  1729  1616  1622   un
  1730  1620  1755   un
  1731   661  1651   un
  1732   661  1654   un
  1733   661  1753   un
  1734   662  1650   un
  1735   662  1653   un
  1736  1623  1639    1
  1737  1624  1640    1
  1738  1625  1640    1
  1739  1626  1640    1
  1740  1627  1641    1
  1741  1628  1643    1
  1742  1629  1644    1
  1743  1630  1644    1
  1744  1631  1644    1
  1745  1632  1646    1
  1746  1633  1648    1
  1747  1634  1647    1
  1748  1635  1647    1
  1749  1636  1647    1
  1750  1637  1649    1
  1751  1638  1640    1
  1752  1638  1650   un
  1753  1638  1651   un
  1754  1639  1641   un
  1755  1639  1650   un
  1756  1641  1651   un
  1757  1642  1644    1
  1758  1642  1652   un
  1759  1642  1654   un
  1760  1643  1649   un
  1761  1643  1652   un
  1762  1645  1647    1
  1763  1645   840   un
  1764  1645  1653   un
  1765  1646  1648   un
  1766  1646   840   un
  1767  1648  1653   un
  1768  1649  1654   un
  1769  1655  1661    1
  1770  1656  1663    1
  1771  1657  1662    1
  1772  1658  1662    1
  1773  1659  1662    1
  1774  1660  1662    1
  1775  1660  1664   un
  1776  1660  1665   un
  1777  1661  1663   un
  1778  1661  1664   un
  1779  1663  1665   un
  1780  1664  1756   un
  1781  1666  1672    1
  1782  1667  1674    1
  1783  1668  1673    1
  1784  1669  1673    1
  1785  1670  1673    1
  1786  1671  1673    1
  1787  1671  1675   un
  1788  1671  1676   un
  1789  1672  1674   un
  1790  1672  1675   un
  1791  1674  1676   un
  1792  1676   868   un
  1793  1677  1683    1
  1794  1678  1684    1
  1795  1679  1684    1
  1796  1680  1684    1
  1797  1681  1685    1
  1798  1682  1684    1
  1799  1682  1686   un
  1800  1682  1687   un
  1801  1683  1685   un
  1802  1683  1686   un
  1803  1685  1687   un
  1804  1687  1757   un
  1805  1688  1694    1
  1806  1689  1695    1
  1807  1690  1695    1
  1808  1691  1695    1
  1809  1692  1696    1
  1810  1693  1695    1
  1811  1693  1697   un
  1812  1693  1698   un
  1813  1694  1696   un
  1814  1694  1697   un
  1815  1696  1698   un
  1816  1697  1758   un
  1817  1699  1705    1
  1818  1700  1707    1
  1819  1701  1706    1
  1820  1702  1706    1
  1821  1703  1706    1
  1822  1704  1706    1
  1823  1704  1708   un
  1824  1704  1709   un
  1825  1705  1707   un
  1826  1705  1708   un
  1827  1707  1709   un
  1828  1708  1760   un
  1829  1710  1716    1
  1830  1711  1718    1
  1831  1712  1717    1
  1832  1713  1717    1
  1833  1714  1717    1
  1834  1715  1717    1
  1835  1715  1719   un
  1836  1715  1720   un
  1837  1716  1718   un
  1838  1716  1719   un
  1839  1718  1720   un
  1840  1720  1761   un
  1841  1721  1727    1
  1842  1722  1728    1
  1843  1723  1728    1
  1844  1724  1728    1
  1845  1725  1729    1
  1846  1726  1728    1
  1847  1726  1730   un
  1848  1726  1731   un
  1849  1727  1729   un
  1850  1727  1730   un
  1851  1729  1731   un
  1852  1731  1234   un
  1853  1732  1738    1
  1854  1733  1739    1
  1855  1734  1739    1
  1856  1735  1739    1
  1857  1736  1740    1
  1858  1737  1739    1
  1859  1737  1741   un
  1860  1737  1742   un
  1861  1738  1740   un
  1862  1738  1741   un
  1863  1740  1742   un
  1864  1741  1759   un
  1865  1743  1749    1
  1866  1744  1750    1
  1867  1745  1750    1
  1868  1746  1750    1
  1869  1747  1751    1
  1870  1748  1750    1
  1871  1748  1752   un
  1872  1748  1753   un
  1873  1749  1751   un
  1874  1749  1752   un
  1875  1751  1753   un
  1876  1763  1802   un
  1877  1763  1846    1
  1878  1764  1835   un
  1879  1764  1851    1
  1880  1765  1769    1
  1881  1766  1769    1
  1882  1767  1769    1
  1883  1768  1769    1
  1884  1756  1797   un
  1885  1756  1799   un
  1886  1756  1862   un
  1887  1757  1798   un
  1888  1757  1800   un
  1889  1757  1874   un
  1890  1770  1786    1
  1891  1771  1787    1
  1892  1772  1787    1
  1893  1773  1787    1
  1894  1774  1788    1
  1895  1775  1790    1
  1896  1776  1793    1
  1897  1777  1795    1
  1898  1778  1794    1
  1899  1779  1794    1
  1900  1780  1794    1
  1901  1781  1796    1
  1902  1782  1791    1
  1903  1783  1791    1
  1904  1784  1791    1
  1905  1785  1787    1
  1906  1785  1797   un
  1907  1785  1798   un
  1908  1786  1788   un
  1909  1786  1797   un
  1910  1788  1798   un
  1911  1789  1791    1
  1912  1789  1799   un
  1913  1789  1802   un
  1914  1790  1796   un
  1915  1790  1799   un
  1916  1792  1794    1
  1917  1792  1800   un
  1918  1792  1801   un
  1919  1793  1795   un
  1920  1793  1800   un
  1921  1795  1801   un
  1922  1796  1802   un
  1923  1801  1886   un
  1924  1758  1830   un
  1925  1758  1832   un
  1926  1758  1884   un
  1927   868  1831   un
  1928   868  1834   un
  1929  1803  1819    1
  1930  1804  1821    1
  1931  1805  1820    1
  1932  1806  1820    1
  1933  1807  1820    1
  1934  1808  1823    1
  1935  1809  1826    1
  1936  1810  1828    1
  1937  1811  1827    1
  1938  1812  1827    1
  1939  1813  1827    1
  1940  1814  1829    1
  1941  1815  1824    1
  1942  1816  1824    1
  1943  1817  1824    1
  1944  1818  1820    1
  1945  1818  1830   un
  1946  1818  1831   un
  1947  1819  1821   un
  1948  1819  1830   un
  1949  1821  1831   un
  1950  1822  1824    1
  1951  1822  1832   un
  1952  1822  1835   un
  1953  1823  1829   un
  1954  1823  1832   un
  1955  1825  1827    1
  1956  1825  1833   un
  1957  1825  1834   un
  1958  1826  1828   un
  1959  1826  1833   un
  1960  1828  1834   un
  1961  1829  1835   un
  1962  1833  1887   un
  1963   769  1885   un
  1964  1836  1840    1
  1965  1837  1840    1
  1966  1838  1840    1
  1967  1839  1840    1
  1968  1841  1843    1
  1969  1842  1844    1
  1970  1843  1844   un
  1971  1843  1845    1
  1972  1844  1846    1
  1973  1845  1889    1
  1974  1847  1849    1
  1975  1848  1850    1
  1976  1849  1850   un
  1977  1849  1851    1
  1978  1850  1852    1
  1979  1852  1890    1
  1980  1853  1859    1
  1981  1854  1860    1
  1982  1855  1860    1
  1983  1856  1860    1
  1984  1857  1861    1
  1985  1858  1860    1
  1986  1858  1862   un
  1987  1858  1863   un
  1988  1859  1861   un
  1989  1859  1862   un
  1990  1861  1863   un
  1991  1863  1334   un
  1992  1864  1870    1
  1993  1865  1871    1
  1994  1866  1871    1
  1995  1867  1871    1
  1996  1868  1872    1
  1997  1869  1871    1
  1998  1869  1873   un
  1999  1869  1874   un
  2000  1870  1872   un
  2001  1870  1873   un
  2002  1872  1874   un
  2003  1873  1888   un
  2004  1875  1881    1
  2005  1876  1882    1
  2006  1877  1882    1
  2007  1878  1882    1
  2008  1879  1883    1
  2009  1880  1882    1
  2010  1880  1884   un
  2011  1880  1885   un
  2012  1881  1883   un
  2013  1881  1884   un
  2014  1883  1885   un
  2015  1891  1907    1
  2016  1891  1911   un
  2017  1755  1902    1
  2018  1892  1896    1
  2019  1893  1896    1
  2020  1894  1896    1
  2021  1895  1896    1
  2022  1897  1899    1
  2023  1898  1900    1
  2024  1899  1900   un
  2025  1899  1901    1
  2026  1900  1902    1
  2027  1901  1909    1
  2028  1903  1905    1
  2029  1904  1906    1
  2030  1905  1906   un
  2031  1905  1907    1
  2032  1906  1908    1
  2033  1908  1910    1
  2034  1912  1933    1
  2035  1912  1960   un
  2036  1887  1928    1
  2037  1913  1917    1
  2038  1914  1917    1
  2039  1915  1917    1
  2040  1916  1917    1
  2041  1909  1944   un
  2042  1910  1956   un
  2043  1918  1922    1
  2044  1919  1922    1
  2045  1920  1922    1
  2046  1921  1922    1
  2047  1923  1925    1
  2048  1924  1926    1
  2049  1925  1926   un
  2050  1925  1927    1
  2051  1926  1928    1
  2052  1927  1957    1
  2053  1929  1931    1
  2054  1930  1932    1
  2055  1931  1932   un
  2056  1931  1933    1
  2057  1932  1934    1
  2058  1934  1958    1
  2059  1935  1941    1
  2060  1936  1942    1
  2061  1937  1942    1
  2062  1938  1942    1
  2063  1939  1943    1
  2064  1940  1942    1
  2065  1940  1944   un
  2066  1940  1945   un
  2067  1941  1943   un
  2068  1941  1944   un
  2069  1943  1945   un
  2070  1945  1761   un
  2071  1946  1952    1
  2072  1947  1953    1
  2073  1948  1953    1
  2074  1949  1953    1
  2075  1950  1954    1
  2076  1951  1953    1
  2077  1951  1955   un
  2078  1951  1956   un
  2079  1952  1954   un
  2080  1952  1955   un
  2081  1954  1956   un
  2082  1955  1959   un
  2083  1957  1975   un
  2084  1958  1987   un
  2085  1961  1965    1
  2086  1962  1965    1
  2087  1963  1965    1
  2088  1964  1965    1
  2089  1966  1972    1
  2090  1967  1973    1
  2091  1968  1973    1
  2092  1969  1973    1
  2093  1970  1974    1
  2094  1971  1973    1
  2095  1971  1975   un
  2096  1971  1976   un
  2097  1972  1974   un
  2098  1972  1975   un
  2099  1974  1976   un
  2100  1976  1890   un
  2101  1977  1983    1
  2102  1978  1984    1
  2103  1979  1984    1
  2104  1980  1984    1
  2105  1981  1985    1
  2106  1982  1984    1
  2107  1982  1986   un
  2108  1982  1987   un
  2109  1983  1985   un
  2110  1983  1986   un
  2111  1985  1987   un
  2112  1986  1988   un
  2113  1989  2019   un
  2114  1989  2026    1
  2115  1228  2033    1
  2116  1990  1994    1
  2117  1991  1994    1
  2118  1992  1994    1
  2119  1993  1994    1
  2120  1003  2018    1
  2121  1003  2021   un
  2122  1004  2017    1
  2123  1004  2020   un
  2124  1995  2007    1
  2125  1996  2008    1
  2126  1997  2010    1
  2127  1998  2011    1
  2128  1999  2011    1
  2129  2000  2011    1
  2130  2001  2013    1
  2131  2002  2015    1
  2132  2003  2014    1
  2133  2004  2014    1
  2134  2005  2014    1
  2135  2006  2016    1
  2136  2007  2008   un
  2137  2007  2017    1
  2138  2008  2018    1
  2139  2009  2011    1
  2140  2009  2019   un
  2141  2009  2021   un
  2142  2010  2016   un
  2143  2010  2019   un
  2144  2012  2014    1
  2145  2012  1486   un
  2146  2012  2020   un
  2147  2013  2015   un
  2148  2013  1486   un
  2149  2015  2020   un
  2150  2016  2021   un
  2151  2022  2024    1
  2152  2023  2025    1
  2153  2024  2025   un
  2154  2024  2026    1
  2155  2025  2027    1
  2156  2027  1759    1
  2157  2028  2030    1
  2158  2029  2031    1
  2159  2030  2031   un
  2160  2030  2032    1
  2161  2031  2033    1
  2162  2032  2034    1
  2163  2035  2075   un
  2164  2035  2082    1
  2165  1331  2089    1
  2166  2036  2040    1
  2167  2037  2040    1
  2168  2038  2040    1
  2169  2039  2040    1
  2170  2034  2099   un
  2171  2041  2045    1
  2172  2042  2045    1
  2173  2043  2045    1
  2174  2044  2045    1
  2175  1233  2074   un
  2176  1233  2077   un
  2177  1233  2100   un
  2178  1234  2073   un
  2179  1234  2076   un
  2180  2046  2062    1
  2181  2047  2063    1
  2182  2048  2063    1
  2183  2049  2063    1
  2184  2050  2064    1
  2185  2051  2066    1
  2186  2052  2067    1
  2187  2053  2067    1
  2188  2054  2067    1
  2189  2055  2069    1
  2190  2056  2071    1
  2191  2057  2070    1
  2192  2058  2070    1
  2193  2059  2070    1
  2194  2060  2072    1
  2195  2061  2063    1
  2196  2061  2073   un
  2197  2061  2074   un
  2198  2062  2064   un
  2199  2062  2073   un
  2200  2064  2074   un
  2201  2065  2067    1
  2202  2065  2075   un
  2203  2065  2077   un
  2204  2066  2072   un
  2205  2066  2075   un
  2206  2068  2070    1
  2207  2068  1762   un
  2208  2068  2076   un
  2209  2069  2071   un
  2210  2069  1762   un
  2211  2071  2076   un
  2212  2072  2077   un
  2213  2078  2080    1
  2214  2079  2081    1
  2215  2080  2081   un
  2216  2080  2082    1
  2217  2081  2083    1
  2218  2083  1888    1
  2219  2084  2086    1
  2220  2085  2087    1
  2221  2086  2087   un
  2222  2086  2088    1
  2223  2087  2089    1
  2224  2088  2101    1
  2225  2090  2096    1
  2226  2091  2097    1
  2227  2092  2097    1
  2228  2093  2097    1
  2229  2094  2098    1
  2230  2095  2097    1
  2231  2095  2099   un
  2232  2095  2100   un
  2233  2096  2098   un
  2234  2096  2099   un
  2235  2098  2100   un
  2236  2101  2121   un
  2237  2102  2106    1
  2238  2103  2106    1
  2239  2104  2106    1
  2240  2105  2106    1
  2241  1333  2122   un
  2242  2107  2111    1
  2243  2108  2111    1
  2244  2109  2111    1
  2245  2110  2111    1
  2246  2112  2118    1
  2247  2113  2119    1
  2248  2114  2119    1
  2249  2115  2119    1
  2250  2116  2120    1
  2251  2117  2119    1
  2252  2117  2121   un
  2253  2117  2122   un
  2254  2118  2120   un
  2255  2118  2121   un
  2256  2120  2122   un
  2257  2123  2153   un
  2258  2123  2160    1
  2259  1754  2167    1
  2260  2124  2128    1
  2261  2125  2128    1
  2262  2126  2128    1
  2263  2127  2128    1
  2264  1484  2152    1
  2265  1484  2155   un
  2266  1485  2151    1
  2267  1485  2154   un
  2268  2129  2141    1
  2269  2130  2142    1
  2270  2131  2144    1
  2271  2132  2145    1
  2272  2133  2145    1
  2273  2134  2145    1
  2274  2135  2147    1
  2275  2136  2149    1
  2276  2137  2148    1
  2277  2138  2148    1
  2278  2139  2148    1
  2279  2140  2150    1
  2280  2141  2142   un
  2281  2141  2151    1
  2282  2142  2152    1
  2283  2143  2145    1
  2284  2143  2153   un
  2285  2143  2155   un
  2286  2144  2150   un
  2287  2144  2153   un
  2288  2146  2148    1
  2289  2146  1911   un
  2290  2146  2154   un
  2291  2147  2149   un
  2292  2147  1911   un
  2293  2149  2154   un
  2294  2150  2155   un
  2295  2156  2158    1
  2296  2157  2159    1
  2297  2158  2159   un
  2298  2158  2160    1
  2299  2159  2161    1
  2300  2161  1959    1
  2301  2162  2164    1
  2302  2163  2165    1
  2303  2164  2165   un
  2304  2164  2166    1
  2305  2165  2167    1
  2306  2166  2168    1
  2307  2169  2209   un
  2308  2169  2216    1
  2309  1886  2223    1
  2310  2170  2174    1
  2311  2171  2174    1
  2312  2172  2174    1
  2313  2173  2174    1
  2314  2168  2233   un
  2315  2175  2179    1
  2316  2176  2179    1
  2317  2177  2179    1
  2318  2178  2179    1
  2319  1760  2208   un
  2320  1760  2211   un
  2321  1760  2234   un
  2322  1761  2207   un
  2323  1761  2210   un
  2324  2180  2196    1
  2325  2181  2197    1
  2326  2182  2197    1
  2327  2183  2197    1
  2328  2184  2198    1
  2329  2185  2200    1
  2330  2186  2201    1
  2331  2187  2201    1
  2332  2188  2201    1
  2333  2189  2203    1
  2334  2190  2205    1
  2335  2191  2204    1
  2336  2192  2204    1
  2337  2193  2204    1
  2338  2194  2206    1
  2339  2195  2197    1
  2340  2195  2207   un
  2341  2195  2208   un
  2342  2196  2198   un
  2343  2196  2207   un
  2344  2198  2208   un
  2345  2199  2201    1
  2346  2199  2209   un
  2347  2199  2211   un
  2348  2200  2206   un
  2349  2200  2209   un
  2350  2202  2204    1
  2351  2202  1960   un
  2352  2202  2210   un
  2353  2203  2205   un
  2354  2203  1960   un
  2355  2205  2210   un
  2356  2206  2211   un
  2357  2212  2214    1
  2358  2213  2215    1
  2359  2214  2215   un
  2360  2214  2216    1
  2361  2215  2217    1
  2362  2217  1988    1
  2363  2218  2220    1
  2364  2219  2221    1
  2365  2220  2221   un
  2366  2220  2222    1
  2367  2221  2223    1
  2368  2222  2235    1
  2369  2224  2230    1
  2370  2225  2231    1
  2371  2226  2231    1
  2372  2227  2231    1
  2373  2228  2232    1
  2374  2229  2231    1
  2375  2229  2233   un
  2376  2229  2234   un
  2377  2230  2232   un
  2378  2230  2233   un
  2379  2232  2234   un
  2380  2235  2255   un
  2381  2236  2240    1
  2382  2237  2240    1
  2383  2238  2240    1
  2384  2239  2240    1
  2385  1889  2256   un
  2386  2241  2245    1
  2387  2242  2245    1
  2388  2243  2245    1
  2389  2244  2245    1
  2390  2246  2252    1
  2391  2247  2253    1
  2392  2248  2253    1
  2393  2249  2253    1
  2394  2250  2254    1
  2395  2251  2253    1
  2396  2251  2255   un
  2397  2251  2256   un
  2398  2252  2254   un
  2399  2252  2255   un
  2400  2254  2256   un
@<TRIPOS>SUBSTRUCTURE
     1 RES1        1 GROUP             0 ****  ****    0  
@<TRIPOS>CRYSIN
   16.9910   16.9910   16.9910   90.0000   90.0000   90.0000     1     1
